/*--------------------------------*- C++ -*----------------------------------*\
  =========                 |
  \\      /  F ield         | OpenFOAM: The Open Source CFD Toolbox
   \\    /   O peration     | Website:  https://openfoam.org
    \\  /    A nd           | Version:  7
     \\/     M anipulation  |
\*---------------------------------------------------------------------------*/
FoamFile
{
    version     2.0;
    format      ascii;
    class       polyBoundaryMesh;
    location    "constant/polyMesh";
    object      boundary;
}
// * * * * * * * * * * * * * * * * * * * * * * * * * * * * * * * * * * * * * //

10
(
    inlet
    {
        type            patch;
        nFaces          34;
        startFace       4343;
    }
    outlet
    {
        type            patch;
        nFaces          0;
        startFace       4377;
    }
    bottom
    {
        type            slip;
        inGroups        List<word> 1(slip);
        nFaces          0;
        startFace       4377;
    }
    top
    {
        type            slip;
        inGroups        List<word> 1(slip);
        nFaces          0;
        startFace       4377;
    }
    obstacle
    {
        type            wall;
        inGroups        List<word> 1(wall);
        nFaces          0;
        startFace       4377;
    }
    defaultFaces
    {
        type            empty;
        inGroups        List<word> 1(empty);
        nFaces          4444;
        startFace       4377;
    }
    procBoundary6to0
    {
        type            processor;
        inGroups        List<word> 1(processor);
        nFaces          67;
        startFace       8821;
        matchTolerance  0.0001;
        transform       unknown;
        myProcNo        6;
        neighbProcNo    0;
    }
    procBoundary6to7
    {
        type            processor;
        inGroups        List<word> 1(processor);
        nFaces          31;
        startFace       8888;
        matchTolerance  0.0001;
        transform       unknown;
        myProcNo        6;
        neighbProcNo    7;
    }
    procBoundary6to12
    {
        type            processor;
        inGroups        List<word> 1(processor);
        nFaces          67;
        startFace       8919;
        matchTolerance  0.0001;
        transform       unknown;
        myProcNo        6;
        neighbProcNo    12;
    }
    procBoundary6to13
    {
        type            processor;
        inGroups        List<word> 1(processor);
        nFaces          3;
        startFace       8986;
        matchTolerance  0.0001;
        transform       unknown;
        myProcNo        6;
        neighbProcNo    13;
    }
)

// ************************************************************************* //
