/*--------------------------------*- C++ -*----------------------------------*\
  =========                 |
  \\      /  F ield         | OpenFOAM: The Open Source CFD Toolbox
   \\    /   O peration     | Website:  https://openfoam.org
    \\  /    A nd           | Version:  7
     \\/     M anipulation  |
\*---------------------------------------------------------------------------*/
FoamFile
{
    version     2.0;
    format      ascii;
    class       polyBoundaryMesh;
    location    "constant/polyMesh";
    object      boundary;
}
// * * * * * * * * * * * * * * * * * * * * * * * * * * * * * * * * * * * * * //

10
(
    inlet
    {
        type            patch;
        nFaces          17;
        startFace       1059;
    }
    outlet
    {
        type            patch;
        nFaces          0;
        startFace       1076;
    }
    bottom
    {
        type            slip;
        inGroups        List<word> 1(slip);
        nFaces          0;
        startFace       1076;
    }
    top
    {
        type            slip;
        inGroups        List<word> 1(slip);
        nFaces          0;
        startFace       1076;
    }
    obstacle
    {
        type            wall;
        inGroups        List<word> 1(wall);
        nFaces          0;
        startFace       1076;
    }
    defaultFaces
    {
        type            empty;
        inGroups        List<word> 1(empty);
        nFaces          1110;
        startFace       1076;
    }
    procBoundary12to6
    {
        type            processor;
        inGroups        List<word> 1(processor);
        nFaces          34;
        startFace       2186;
        matchTolerance  0.0001;
        transform       unknown;
        myProcNo        12;
        neighbProcNo    6;
    }
    procBoundary12to7
    {
        type            processor;
        inGroups        List<word> 1(processor);
        nFaces          1;
        startFace       2220;
        matchTolerance  0.0001;
        transform       unknown;
        myProcNo        12;
        neighbProcNo    7;
    }
    procBoundary12to13
    {
        type            processor;
        inGroups        List<word> 1(processor);
        nFaces          16;
        startFace       2221;
        matchTolerance  0.0001;
        transform       unknown;
        myProcNo        12;
        neighbProcNo    13;
    }
    procBoundary12to18
    {
        type            processor;
        inGroups        List<word> 1(processor);
        nFaces          34;
        startFace       2237;
        matchTolerance  0.0001;
        transform       unknown;
        myProcNo        12;
        neighbProcNo    18;
    }
)

// ************************************************************************* //
