/*--------------------------------*- C++ -*----------------------------------*\
  =========                 |
  \\      /  F ield         | OpenFOAM: The Open Source CFD Toolbox
   \\    /   O peration     | Website:  https://openfoam.org
    \\  /    A nd           | Version:  7
     \\/     M anipulation  |
\*---------------------------------------------------------------------------*/
FoamFile
{
    version     2.0;
    format      ascii;
    class       polyBoundaryMesh;
    location    "constant/polyMesh";
    object      boundary;
}
// * * * * * * * * * * * * * * * * * * * * * * * * * * * * * * * * * * * * * //

12
(
    inlet
    {
        type            patch;
        nFaces          0;
        startFace       1060;
    }
    outlet
    {
        type            patch;
        nFaces          0;
        startFace       1060;
    }
    bottom
    {
        type            slip;
        inGroups        List<word> 1(slip);
        nFaces          0;
        startFace       1060;
    }
    top
    {
        type            slip;
        inGroups        List<word> 1(slip);
        nFaces          0;
        startFace       1060;
    }
    obstacle
    {
        type            wall;
        inGroups        List<word> 1(wall);
        nFaces          11;
        startFace       1060;
    }
    defaultFaces
    {
        type            empty;
        inGroups        List<word> 1(empty);
        nFaces          1110;
        startFace       1071;
    }
    procBoundary27to20
    {
        type            processor;
        inGroups        List<word> 1(processor);
        nFaces          16;
        startFace       2181;
        matchTolerance  0.0001;
        transform       unknown;
        myProcNo        27;
        neighbProcNo    20;
    }
    procBoundary27to21
    {
        type            processor;
        inGroups        List<word> 1(processor);
        nFaces          18;
        startFace       2197;
        matchTolerance  0.0001;
        transform       unknown;
        myProcNo        27;
        neighbProcNo    21;
    }
    procBoundary27to26
    {
        type            processor;
        inGroups        List<word> 1(processor);
        nFaces          4;
        startFace       2215;
        matchTolerance  0.0001;
        transform       unknown;
        myProcNo        27;
        neighbProcNo    26;
    }
    procBoundary27to28
    {
        type            processor;
        inGroups        List<word> 1(processor);
        nFaces          28;
        startFace       2219;
        matchTolerance  0.0001;
        transform       unknown;
        myProcNo        27;
        neighbProcNo    28;
    }
    procBoundary27to33
    {
        type            processor;
        inGroups        List<word> 1(processor);
        nFaces          19;
        startFace       2247;
        matchTolerance  0.0001;
        transform       unknown;
        myProcNo        27;
        neighbProcNo    33;
    }
    procBoundary27to34
    {
        type            processor;
        inGroups        List<word> 1(processor);
        nFaces          4;
        startFace       2266;
        matchTolerance  0.0001;
        transform       unknown;
        myProcNo        27;
        neighbProcNo    34;
    }
)

// ************************************************************************* //
