/*--------------------------------*- C++ -*----------------------------------*\
  =========                 |
  \\      /  F ield         | OpenFOAM: The Open Source CFD Toolbox
   \\    /   O peration     | Website:  https://openfoam.org
    \\  /    A nd           | Version:  7
     \\/     M anipulation  |
\*---------------------------------------------------------------------------*/
FoamFile
{
    version     2.0;
    format      ascii;
    class       polyBoundaryMesh;
    location    "constant/polyMesh";
    object      boundary;
}
// * * * * * * * * * * * * * * * * * * * * * * * * * * * * * * * * * * * * * //

11
(
    inlet
    {
        type            patch;
        nFaces          0;
        startFace       4325;
    }
    outlet
    {
        type            patch;
        nFaces          0;
        startFace       4325;
    }
    bottom
    {
        type            slip;
        inGroups        List<word> 1(slip);
        nFaces          0;
        startFace       4325;
    }
    top
    {
        type            slip;
        inGroups        List<word> 1(slip);
        nFaces          0;
        startFace       4325;
    }
    obstacle
    {
        type            wall;
        inGroups        List<word> 1(wall);
        nFaces          79;
        startFace       4325;
    }
    defaultFaces
    {
        type            empty;
        inGroups        List<word> 1(empty);
        nFaces          4444;
        startFace       4404;
    }
    procBoundary20to13
    {
        type            processor;
        inGroups        List<word> 1(processor);
        nFaces          8;
        startFace       8848;
        matchTolerance  0.0001;
        transform       unknown;
        myProcNo        20;
        neighbProcNo    13;
    }
    procBoundary20to14
    {
        type            processor;
        inGroups        List<word> 1(processor);
        nFaces          17;
        startFace       8856;
        matchTolerance  0.0001;
        transform       unknown;
        myProcNo        20;
        neighbProcNo    14;
    }
    procBoundary20to19
    {
        type            processor;
        inGroups        List<word> 1(processor);
        nFaces          27;
        startFace       8873;
        matchTolerance  0.0001;
        transform       unknown;
        myProcNo        20;
        neighbProcNo    19;
    }
    procBoundary20to26
    {
        type            processor;
        inGroups        List<word> 1(processor);
        nFaces          72;
        startFace       8900;
        matchTolerance  0.0001;
        transform       unknown;
        myProcNo        20;
        neighbProcNo    26;
    }
    procBoundary20to27
    {
        type            processor;
        inGroups        List<word> 1(processor);
        nFaces          35;
        startFace       8972;
        matchTolerance  0.0001;
        transform       unknown;
        myProcNo        20;
        neighbProcNo    27;
    }
)

// ************************************************************************* //
