/*--------------------------------*- C++ -*----------------------------------*\
  =========                 |
  \\      /  F ield         | OpenFOAM: The Open Source CFD Toolbox
   \\    /   O peration     | Website:  https://openfoam.org
    \\  /    A nd           | Version:  7
     \\/     M anipulation  |
\*---------------------------------------------------------------------------*/
FoamFile
{
    version     2.0;
    format      ascii;
    class       polyBoundaryMesh;
    location    "constant/polyMesh";
    object      boundary;
}
// * * * * * * * * * * * * * * * * * * * * * * * * * * * * * * * * * * * * * //

9
(
    inlet
    {
        type            patch;
        nFaces          0;
        startFace       1066;
    }
    outlet
    {
        type            patch;
        nFaces          0;
        startFace       1066;
    }
    bottom
    {
        type            slip;
        inGroups        List<word> 1(slip);
        nFaces          0;
        startFace       1066;
    }
    top
    {
        type            slip;
        inGroups        List<word> 1(slip);
        nFaces          33;
        startFace       1066;
    }
    obstacle
    {
        type            wall;
        inGroups        List<word> 1(wall);
        nFaces          0;
        startFace       1099;
    }
    defaultFaces
    {
        type            empty;
        inGroups        List<word> 1(empty);
        nFaces          1116;
        startFace       1099;
    }
    procBoundary32to26
    {
        type            processor;
        inGroups        List<word> 1(processor);
        nFaces          34;
        startFace       2215;
        matchTolerance  0.0001;
        transform       unknown;
        myProcNo        32;
        neighbProcNo    26;
    }
    procBoundary32to31
    {
        type            processor;
        inGroups        List<word> 1(processor);
        nFaces          16;
        startFace       2249;
        matchTolerance  0.0001;
        transform       unknown;
        myProcNo        32;
        neighbProcNo    31;
    }
    procBoundary32to33
    {
        type            processor;
        inGroups        List<word> 1(processor);
        nFaces          17;
        startFace       2265;
        matchTolerance  0.0001;
        transform       unknown;
        myProcNo        32;
        neighbProcNo    33;
    }
)

// ************************************************************************* //
