/*--------------------------------*- C++ -*----------------------------------*\
  =========                 |
  \\      /  F ield         | OpenFOAM: The Open Source CFD Toolbox
   \\    /   O peration     | Website:  https://openfoam.org
    \\  /    A nd           | Version:  7
     \\/     M anipulation  |
\*---------------------------------------------------------------------------*/
FoamFile
{
    version     2.0;
    format      ascii;
    class       polyBoundaryMesh;
    location    "constant/polyMesh";
    object      boundary;
}
// * * * * * * * * * * * * * * * * * * * * * * * * * * * * * * * * * * * * * //

12
(
    inlet
    {
        type            patch;
        nFaces          0;
        startFace       4;
    }
    outlet
    {
        type            patch;
        nFaces          0;
        startFace       4;
    }
    bottom
    {
        type            slip;
        inGroups        List<word> 1(slip);
        nFaces          1;
        startFace       4;
    }
    top
    {
        type            slip;
        inGroups        List<word> 1(slip);
        nFaces          0;
        startFace       5;
    }
    obstacle
    {
        type            wall;
        inGroups        List<word> 1(wall);
        nFaces          0;
        startFace       5;
    }
    defaultFaces
    {
        type            empty;
        inGroups        List<word> 1(empty);
        nFaces          10;
        startFace       5;
    }
    procBoundary4to3
    {
        type            processor;
        inGroups        List<word> 1(processor);
        nFaces          2;
        startFace       15;
        matchTolerance  0.0001;
        transform       unknown;
        myProcNo        4;
        neighbProcNo    3;
    }
    procBoundary4to5
    {
        type            processor;
        inGroups        List<word> 1(processor);
        nFaces          3;
        startFace       17;
        matchTolerance  0.0001;
        transform       unknown;
        myProcNo        4;
        neighbProcNo    5;
    }
    procBoundary4to9
    {
        type            processor;
        inGroups        List<word> 1(processor);
        nFaces          2;
        startFace       20;
        matchTolerance  0.0001;
        transform       unknown;
        myProcNo        4;
        neighbProcNo    9;
    }
    procBoundary4to10
    {
        type            processor;
        inGroups        List<word> 1(processor);
        nFaces          1;
        startFace       22;
        matchTolerance  0.0001;
        transform       unknown;
        myProcNo        4;
        neighbProcNo    10;
    }
    procBoundary4to11
    {
        type            processor;
        inGroups        List<word> 1(processor);
        nFaces          2;
        startFace       23;
        matchTolerance  0.0001;
        transform       unknown;
        myProcNo        4;
        neighbProcNo    11;
    }
    procBoundary4to15
    {
        type            processor;
        inGroups        List<word> 1(processor);
        nFaces          1;
        startFace       25;
        matchTolerance  0.0001;
        transform       unknown;
        myProcNo        4;
        neighbProcNo    15;
    }
)

// ************************************************************************* //
