/*--------------------------------*- C++ -*----------------------------------*\
  =========                 |
  \\      /  F ield         | OpenFOAM: The Open Source CFD Toolbox
   \\    /   O peration     | Website:  https://openfoam.org
    \\  /    A nd           | Version:  7
     \\/     M anipulation  |
\*---------------------------------------------------------------------------*/
FoamFile
{
    version     2.0;
    format      ascii;
    class       polyBoundaryMesh;
    location    "constant/polyMesh";
    object      boundary;
}
// * * * * * * * * * * * * * * * * * * * * * * * * * * * * * * * * * * * * * //

10
(
    inlet
    {
        type            patch;
        nFaces          0;
        startFace       1059;
    }
    outlet
    {
        type            patch;
        nFaces          31;
        startFace       1059;
    }
    bottom
    {
        type            slip;
        inGroups        List<word> 1(slip);
        nFaces          0;
        startFace       1090;
    }
    top
    {
        type            slip;
        inGroups        List<word> 1(slip);
        nFaces          0;
        startFace       1090;
    }
    obstacle
    {
        type            wall;
        inGroups        List<word> 1(wall);
        nFaces          0;
        startFace       1090;
    }
    defaultFaces
    {
        type            empty;
        inGroups        List<word> 1(empty);
        nFaces          1110;
        startFace       1090;
    }
    procBoundary23to17
    {
        type            processor;
        inGroups        List<word> 1(processor);
        nFaces          20;
        startFace       2200;
        matchTolerance  0.0001;
        transform       unknown;
        myProcNo        23;
        neighbProcNo    17;
    }
    procBoundary23to22
    {
        type            processor;
        inGroups        List<word> 1(processor);
        nFaces          32;
        startFace       2220;
        matchTolerance  0.0001;
        transform       unknown;
        myProcNo        23;
        neighbProcNo    22;
    }
    procBoundary23to28
    {
        type            processor;
        inGroups        List<word> 1(processor);
        nFaces          1;
        startFace       2252;
        matchTolerance  0.0001;
        transform       unknown;
        myProcNo        23;
        neighbProcNo    28;
    }
    procBoundary23to29
    {
        type            processor;
        inGroups        List<word> 1(processor);
        nFaces          18;
        startFace       2253;
        matchTolerance  0.0001;
        transform       unknown;
        myProcNo        23;
        neighbProcNo    29;
    }
)

// ************************************************************************* //
