/*--------------------------------*- C++ -*----------------------------------*\
  =========                 |
  \\      /  F ield         | OpenFOAM: The Open Source CFD Toolbox
   \\    /   O peration     | Website:  https://openfoam.org
    \\  /    A nd           | Version:  7
     \\/     M anipulation  |
\*---------------------------------------------------------------------------*/
FoamFile
{
    version     2.0;
    format      ascii;
    class       polyBoundaryMesh;
    location    "constant/polyMesh";
    object      boundary;
}
// * * * * * * * * * * * * * * * * * * * * * * * * * * * * * * * * * * * * * //

10
(
    inlet
    {
        type            patch;
        nFaces          0;
        startFace       251;
    }
    outlet
    {
        type            patch;
        nFaces          17;
        startFace       251;
    }
    bottom
    {
        type            slip;
        inGroups        List<word> 1(slip);
        nFaces          0;
        startFace       268;
    }
    top
    {
        type            slip;
        inGroups        List<word> 1(slip);
        nFaces          0;
        startFace       268;
    }
    obstacle
    {
        type            wall;
        inGroups        List<word> 1(wall);
        nFaces          0;
        startFace       268;
    }
    defaultFaces
    {
        type            empty;
        inGroups        List<word> 1(empty);
        nFaces          278;
        startFace       268;
    }
    procBoundary11to5
    {
        type            processor;
        inGroups        List<word> 1(processor);
        nFaces          9;
        startFace       546;
        matchTolerance  0.0001;
        transform       unknown;
        myProcNo        11;
        neighbProcNo    5;
    }
    procBoundary11to10
    {
        type            processor;
        inGroups        List<word> 1(processor);
        nFaces          17;
        startFace       555;
        matchTolerance  0.0001;
        transform       unknown;
        myProcNo        11;
        neighbProcNo    10;
    }
    procBoundary11to16
    {
        type            processor;
        inGroups        List<word> 1(processor);
        nFaces          1;
        startFace       572;
        matchTolerance  0.0001;
        transform       unknown;
        myProcNo        11;
        neighbProcNo    16;
    }
    procBoundary11to17
    {
        type            processor;
        inGroups        List<word> 1(processor);
        nFaces          10;
        startFace       573;
        matchTolerance  0.0001;
        transform       unknown;
        myProcNo        11;
        neighbProcNo    17;
    }
)

// ************************************************************************* //
