/*--------------------------------*- C++ -*----------------------------------*\
  =========                 |
  \\      /  F ield         | OpenFOAM: The Open Source CFD Toolbox
   \\    /   O peration     | Website:  https://openfoam.org
    \\  /    A nd           | Version:  7
     \\/     M anipulation  |
\*---------------------------------------------------------------------------*/
FoamFile
{
    version     2.0;
    format      ascii;
    class       polyBoundaryMesh;
    location    "constant/polyMesh";
    object      boundary;
}
// * * * * * * * * * * * * * * * * * * * * * * * * * * * * * * * * * * * * * //

10
(
    inlet
    {
        type            patch;
        nFaces          0;
        startFace       4;
    }
    outlet
    {
        type            patch;
        nFaces          0;
        startFace       4;
    }
    bottom
    {
        type            slip;
        inGroups        List<word> 1(slip);
        nFaces          0;
        startFace       4;
    }
    top
    {
        type            slip;
        inGroups        List<word> 1(slip);
        nFaces          0;
        startFace       4;
    }
    obstacle
    {
        type            wall;
        inGroups        List<word> 1(wall);
        nFaces          3;
        startFace       4;
    }
    defaultFaces
    {
        type            empty;
        inGroups        List<word> 1(empty);
        nFaces          10;
        startFace       7;
    }
    procBoundary15to4
    {
        type            processor;
        inGroups        List<word> 1(processor);
        nFaces          1;
        startFace       17;
        matchTolerance  0.0001;
        transform       unknown;
        myProcNo        15;
        neighbProcNo    4;
    }
    procBoundary15to9
    {
        type            processor;
        inGroups        List<word> 1(processor);
        nFaces          3;
        startFace       18;
        matchTolerance  0.0001;
        transform       unknown;
        myProcNo        15;
        neighbProcNo    9;
    }
    procBoundary15to10
    {
        type            processor;
        inGroups        List<word> 1(processor);
        nFaces          4;
        startFace       21;
        matchTolerance  0.0001;
        transform       unknown;
        myProcNo        15;
        neighbProcNo    10;
    }
    procBoundary15to21
    {
        type            processor;
        inGroups        List<word> 1(processor);
        nFaces          1;
        startFace       25;
        matchTolerance  0.0001;
        transform       unknown;
        myProcNo        15;
        neighbProcNo    21;
    }
)

// ************************************************************************* //
