/*--------------------------------*- C++ -*----------------------------------*\
  =========                 |
  \\      /  F ield         | OpenFOAM: The Open Source CFD Toolbox
   \\    /   O peration     | Website:  https://openfoam.org
    \\  /    A nd           | Version:  7
     \\/     M anipulation  |
\*---------------------------------------------------------------------------*/
FoamFile
{
    version     2.0;
    format      ascii;
    class       polyBoundaryMesh;
    location    "constant/polyMesh";
    object      boundary;
}
// * * * * * * * * * * * * * * * * * * * * * * * * * * * * * * * * * * * * * //

11
(
    inlet
    {
        type            patch;
        nFaces          0;
        startFace       1057;
    }
    outlet
    {
        type            patch;
        nFaces          0;
        startFace       1057;
    }
    bottom
    {
        type            slip;
        inGroups        List<word> 1(slip);
        nFaces          0;
        startFace       1057;
    }
    top
    {
        type            slip;
        inGroups        List<word> 1(slip);
        nFaces          0;
        startFace       1057;
    }
    obstacle
    {
        type            wall;
        inGroups        List<word> 1(wall);
        nFaces          0;
        startFace       1057;
    }
    defaultFaces
    {
        type            empty;
        inGroups        List<word> 1(empty);
        nFaces          1110;
        startFace       1057;
    }
    procBoundary16to10
    {
        type            processor;
        inGroups        List<word> 1(processor);
        nFaces          18;
        startFace       2167;
        matchTolerance  0.0001;
        transform       unknown;
        myProcNo        16;
        neighbProcNo    10;
    }
    procBoundary16to11
    {
        type            processor;
        inGroups        List<word> 1(processor);
        nFaces          1;
        startFace       2185;
        matchTolerance  0.0001;
        transform       unknown;
        myProcNo        16;
        neighbProcNo    11;
    }
    procBoundary16to15
    {
        type            processor;
        inGroups        List<word> 1(processor);
        nFaces          35;
        startFace       2186;
        matchTolerance  0.0001;
        transform       unknown;
        myProcNo        16;
        neighbProcNo    15;
    }
    procBoundary16to17
    {
        type            processor;
        inGroups        List<word> 1(processor);
        nFaces          32;
        startFace       2221;
        matchTolerance  0.0001;
        transform       unknown;
        myProcNo        16;
        neighbProcNo    17;
    }
    procBoundary16to22
    {
        type            processor;
        inGroups        List<word> 1(processor);
        nFaces          20;
        startFace       2253;
        matchTolerance  0.0001;
        transform       unknown;
        myProcNo        16;
        neighbProcNo    22;
    }
)

// ************************************************************************* //
