/*--------------------------------*- C++ -*----------------------------------*\
  =========                 |
  \\      /  F ield         | OpenFOAM: The Open Source CFD Toolbox
   \\    /   O peration     | Website:  https://openfoam.org
    \\  /    A nd           | Version:  7
     \\/     M anipulation  |
\*---------------------------------------------------------------------------*/
FoamFile
{
    version     2.0;
    format      ascii;
    class       polyBoundaryMesh;
    location    "constant/polyMesh";
    object      boundary;
}
// * * * * * * * * * * * * * * * * * * * * * * * * * * * * * * * * * * * * * //

12
(
    inlet
    {
        type            patch;
        nFaces          0;
        startFace       249;
    }
    outlet
    {
        type            patch;
        nFaces          0;
        startFace       249;
    }
    bottom
    {
        type            slip;
        inGroups        List<word> 1(slip);
        nFaces          0;
        startFace       249;
    }
    top
    {
        type            slip;
        inGroups        List<word> 1(slip);
        nFaces          0;
        startFace       249;
    }
    obstacle
    {
        type            wall;
        inGroups        List<word> 1(wall);
        nFaces          0;
        startFace       249;
    }
    defaultFaces
    {
        type            empty;
        inGroups        List<word> 1(empty);
        nFaces          276;
        startFace       249;
    }
    procBoundary28to21
    {
        type            processor;
        inGroups        List<word> 1(processor);
        nFaces          2;
        startFace       525;
        matchTolerance  0.0001;
        transform       unknown;
        myProcNo        28;
        neighbProcNo    21;
    }
    procBoundary28to22
    {
        type            processor;
        inGroups        List<word> 1(processor);
        nFaces          9;
        startFace       527;
        matchTolerance  0.0001;
        transform       unknown;
        myProcNo        28;
        neighbProcNo    22;
    }
    procBoundary28to23
    {
        type            processor;
        inGroups        List<word> 1(processor);
        nFaces          2;
        startFace       536;
        matchTolerance  0.0001;
        transform       unknown;
        myProcNo        28;
        neighbProcNo    23;
    }
    procBoundary28to27
    {
        type            processor;
        inGroups        List<word> 1(processor);
        nFaces          16;
        startFace       538;
        matchTolerance  0.0001;
        transform       unknown;
        myProcNo        28;
        neighbProcNo    27;
    }
    procBoundary28to29
    {
        type            processor;
        inGroups        List<word> 1(processor);
        nFaces          16;
        startFace       554;
        matchTolerance  0.0001;
        transform       unknown;
        myProcNo        28;
        neighbProcNo    29;
    }
    procBoundary28to34
    {
        type            processor;
        inGroups        List<word> 1(processor);
        nFaces          9;
        startFace       570;
        matchTolerance  0.0001;
        transform       unknown;
        myProcNo        28;
        neighbProcNo    34;
    }
)

// ************************************************************************* //
