/*--------------------------------*- C++ -*----------------------------------*\
  =========                 |
  \\      /  F ield         | OpenFOAM: The Open Source CFD Toolbox
   \\    /   O peration     | Website:  https://openfoam.org
    \\  /    A nd           | Version:  7
     \\/     M anipulation  |
\*---------------------------------------------------------------------------*/
FoamFile
{
    version     2.0;
    format      ascii;
    class       polyBoundaryMesh;
    location    "constant/polyMesh";
    object      boundary;
}
// * * * * * * * * * * * * * * * * * * * * * * * * * * * * * * * * * * * * * //

11
(
    inlet
    {
        type            patch;
        nFaces          0;
        startFace       33;
    }
    outlet
    {
        type            patch;
        nFaces          0;
        startFace       33;
    }
    bottom
    {
        type            slip;
        inGroups        List<word> 1(slip);
        nFaces          0;
        startFace       33;
    }
    top
    {
        type            slip;
        inGroups        List<word> 1(slip);
        nFaces          0;
        startFace       33;
    }
    obstacle
    {
        type            wall;
        inGroups        List<word> 1(wall);
        nFaces          4;
        startFace       33;
    }
    defaultFaces
    {
        type            empty;
        inGroups        List<word> 1(empty);
        nFaces          44;
        startFace       37;
    }
    procBoundary14to7
    {
        type            processor;
        inGroups        List<word> 1(processor);
        nFaces          1;
        startFace       81;
        matchTolerance  0.0001;
        transform       unknown;
        myProcNo        14;
        neighbProcNo    7;
    }
    procBoundary14to8
    {
        type            processor;
        inGroups        List<word> 1(processor);
        nFaces          8;
        startFace       82;
        matchTolerance  0.0001;
        transform       unknown;
        myProcNo        14;
        neighbProcNo    8;
    }
    procBoundary14to9
    {
        type            processor;
        inGroups        List<word> 1(processor);
        nFaces          3;
        startFace       90;
        matchTolerance  0.0001;
        transform       unknown;
        myProcNo        14;
        neighbProcNo    9;
    }
    procBoundary14to13
    {
        type            processor;
        inGroups        List<word> 1(processor);
        nFaces          2;
        startFace       93;
        matchTolerance  0.0001;
        transform       unknown;
        myProcNo        14;
        neighbProcNo    13;
    }
    procBoundary14to20
    {
        type            processor;
        inGroups        List<word> 1(processor);
        nFaces          4;
        startFace       95;
        matchTolerance  0.0001;
        transform       unknown;
        myProcNo        14;
        neighbProcNo    20;
    }
)

// ************************************************************************* //
