/*--------------------------------*- C++ -*----------------------------------*\
  =========                 |
  \\      /  F ield         | OpenFOAM: The Open Source CFD Toolbox
   \\    /   O peration     | Website:  https://openfoam.org
    \\  /    A nd           | Version:  7
     \\/     M anipulation  |
\*---------------------------------------------------------------------------*/
FoamFile
{
    version     2.0;
    format      ascii;
    class       polyBoundaryMesh;
    location    "constant/polyMesh";
    object      boundary;
}
// * * * * * * * * * * * * * * * * * * * * * * * * * * * * * * * * * * * * * //

12
(
    inlet
    {
        type            patch;
        nFaces          0;
        startFace       4338;
    }
    outlet
    {
        type            patch;
        nFaces          0;
        startFace       4338;
    }
    bottom
    {
        type            slip;
        inGroups        List<word> 1(slip);
        nFaces          0;
        startFace       4338;
    }
    top
    {
        type            slip;
        inGroups        List<word> 1(slip);
        nFaces          0;
        startFace       4338;
    }
    obstacle
    {
        type            wall;
        inGroups        List<word> 1(wall);
        nFaces          0;
        startFace       4338;
    }
    defaultFaces
    {
        type            empty;
        inGroups        List<word> 1(empty);
        nFaces          4444;
        startFace       4338;
    }
    procBoundary8to1
    {
        type            processor;
        inGroups        List<word> 1(processor);
        nFaces          3;
        startFace       8782;
        matchTolerance  0.0001;
        transform       unknown;
        myProcNo        8;
        neighbProcNo    1;
    }
    procBoundary8to2
    {
        type            processor;
        inGroups        List<word> 1(processor);
        nFaces          71;
        startFace       8785;
        matchTolerance  0.0001;
        transform       unknown;
        myProcNo        8;
        neighbProcNo    2;
    }
    procBoundary8to3
    {
        type            processor;
        inGroups        List<word> 1(processor);
        nFaces          27;
        startFace       8856;
        matchTolerance  0.0001;
        transform       unknown;
        myProcNo        8;
        neighbProcNo    3;
    }
    procBoundary8to7
    {
        type            processor;
        inGroups        List<word> 1(processor);
        nFaces          29;
        startFace       8883;
        matchTolerance  0.0001;
        transform       unknown;
        myProcNo        8;
        neighbProcNo    7;
    }
    procBoundary8to9
    {
        type            processor;
        inGroups        List<word> 1(processor);
        nFaces          8;
        startFace       8912;
        matchTolerance  0.0001;
        transform       unknown;
        myProcNo        8;
        neighbProcNo    9;
    }
    procBoundary8to14
    {
        type            processor;
        inGroups        List<word> 1(processor);
        nFaces          74;
        startFace       8920;
        matchTolerance  0.0001;
        transform       unknown;
        myProcNo        8;
        neighbProcNo    14;
    }
)

// ************************************************************************* //
