/*--------------------------------*- C++ -*----------------------------------*\
  =========                 |
  \\      /  F ield         | OpenFOAM: The Open Source CFD Toolbox
   \\    /   O peration     | Website:  https://openfoam.org
    \\  /    A nd           | Version:  7
     \\/     M anipulation  |
\*---------------------------------------------------------------------------*/
FoamFile
{
    version     2.0;
    format      ascii;
    class       polyBoundaryMesh;
    location    "constant/polyMesh";
    object      boundary;
}
// * * * * * * * * * * * * * * * * * * * * * * * * * * * * * * * * * * * * * //

12
(
    inlet
    {
        type            patch;
        nFaces          0;
        startFace       250;
    }
    outlet
    {
        type            patch;
        nFaces          0;
        startFace       250;
    }
    bottom
    {
        type            slip;
        inGroups        List<word> 1(slip);
        nFaces          0;
        startFace       250;
    }
    top
    {
        type            slip;
        inGroups        List<word> 1(slip);
        nFaces          0;
        startFace       250;
    }
    obstacle
    {
        type            wall;
        inGroups        List<word> 1(wall);
        nFaces          0;
        startFace       250;
    }
    defaultFaces
    {
        type            empty;
        inGroups        List<word> 1(empty);
        nFaces          276;
        startFace       250;
    }
    procBoundary16to10
    {
        type            processor;
        inGroups        List<word> 1(processor);
        nFaces          9;
        startFace       526;
        matchTolerance  0.0001;
        transform       unknown;
        myProcNo        16;
        neighbProcNo    10;
    }
    procBoundary16to11
    {
        type            processor;
        inGroups        List<word> 1(processor);
        nFaces          1;
        startFace       535;
        matchTolerance  0.0001;
        transform       unknown;
        myProcNo        16;
        neighbProcNo    11;
    }
    procBoundary16to15
    {
        type            processor;
        inGroups        List<word> 1(processor);
        nFaces          16;
        startFace       536;
        matchTolerance  0.0001;
        transform       unknown;
        myProcNo        16;
        neighbProcNo    15;
    }
    procBoundary16to17
    {
        type            processor;
        inGroups        List<word> 1(processor);
        nFaces          15;
        startFace       552;
        matchTolerance  0.0001;
        transform       unknown;
        myProcNo        16;
        neighbProcNo    17;
    }
    procBoundary16to21
    {
        type            processor;
        inGroups        List<word> 1(processor);
        nFaces          1;
        startFace       567;
        matchTolerance  0.0001;
        transform       unknown;
        myProcNo        16;
        neighbProcNo    21;
    }
    procBoundary16to22
    {
        type            processor;
        inGroups        List<word> 1(processor);
        nFaces          10;
        startFace       568;
        matchTolerance  0.0001;
        transform       unknown;
        myProcNo        16;
        neighbProcNo    22;
    }
)

// ************************************************************************* //
