/*--------------------------------*- C++ -*----------------------------------*\
  =========                 |
  \\      /  F ield         | OpenFOAM: The Open Source CFD Toolbox
   \\    /   O peration     | Website:  https://openfoam.org
    \\  /    A nd           | Version:  7
     \\/     M anipulation  |
\*---------------------------------------------------------------------------*/
FoamFile
{
    version     2.0;
    format      ascii;
    class       polyBoundaryMesh;
    location    "constant/polyMesh";
    object      boundary;
}
// * * * * * * * * * * * * * * * * * * * * * * * * * * * * * * * * * * * * * //

10
(
    inlet
    {
        type            patch;
        nFaces          0;
        startFace       1060;
    }
    outlet
    {
        type            patch;
        nFaces          30;
        startFace       1060;
    }
    bottom
    {
        type            slip;
        inGroups        List<word> 1(slip);
        nFaces          0;
        startFace       1090;
    }
    top
    {
        type            slip;
        inGroups        List<word> 1(slip);
        nFaces          0;
        startFace       1090;
    }
    obstacle
    {
        type            wall;
        inGroups        List<word> 1(wall);
        nFaces          0;
        startFace       1090;
    }
    defaultFaces
    {
        type            empty;
        inGroups        List<word> 1(empty);
        nFaces          1110;
        startFace       1090;
    }
    procBoundary17to11
    {
        type            processor;
        inGroups        List<word> 1(processor);
        nFaces          17;
        startFace       2200;
        matchTolerance  0.0001;
        transform       unknown;
        myProcNo        17;
        neighbProcNo    11;
    }
    procBoundary17to16
    {
        type            processor;
        inGroups        List<word> 1(processor);
        nFaces          32;
        startFace       2217;
        matchTolerance  0.0001;
        transform       unknown;
        myProcNo        17;
        neighbProcNo    16;
    }
    procBoundary17to22
    {
        type            processor;
        inGroups        List<word> 1(processor);
        nFaces          1;
        startFace       2249;
        matchTolerance  0.0001;
        transform       unknown;
        myProcNo        17;
        neighbProcNo    22;
    }
    procBoundary17to23
    {
        type            processor;
        inGroups        List<word> 1(processor);
        nFaces          20;
        startFace       2250;
        matchTolerance  0.0001;
        transform       unknown;
        myProcNo        17;
        neighbProcNo    23;
    }
)

// ************************************************************************* //
