/*--------------------------------*- C++ -*----------------------------------*\
  =========                 |
  \\      /  F ield         | OpenFOAM: The Open Source CFD Toolbox
   \\    /   O peration     | Website:  https://openfoam.org
    \\  /    A nd           | Version:  7
     \\/     M anipulation  |
\*---------------------------------------------------------------------------*/
FoamFile
{
    version     2.0;
    format      ascii;
    class       polyBoundaryMesh;
    location    "constant/polyMesh";
    object      boundary;
}
// * * * * * * * * * * * * * * * * * * * * * * * * * * * * * * * * * * * * * //

11
(
    inlet
    {
        type            patch;
        nFaces          0;
        startFace       33;
    }
    outlet
    {
        type            patch;
        nFaces          0;
        startFace       33;
    }
    bottom
    {
        type            slip;
        inGroups        List<word> 1(slip);
        nFaces          0;
        startFace       33;
    }
    top
    {
        type            slip;
        inGroups        List<word> 1(slip);
        nFaces          0;
        startFace       33;
    }
    obstacle
    {
        type            wall;
        inGroups        List<word> 1(wall);
        nFaces          0;
        startFace       33;
    }
    defaultFaces
    {
        type            empty;
        inGroups        List<word> 1(empty);
        nFaces          44;
        startFace       33;
    }
    procBoundary25to19
    {
        type            processor;
        inGroups        List<word> 1(processor);
        nFaces          7;
        startFace       77;
        matchTolerance  0.0001;
        transform       unknown;
        myProcNo        25;
        neighbProcNo    19;
    }
    procBoundary25to24
    {
        type            processor;
        inGroups        List<word> 1(processor);
        nFaces          2;
        startFace       84;
        matchTolerance  0.0001;
        transform       unknown;
        myProcNo        25;
        neighbProcNo    24;
    }
    procBoundary25to26
    {
        type            processor;
        inGroups        List<word> 1(processor);
        nFaces          4;
        startFace       86;
        matchTolerance  0.0001;
        transform       unknown;
        myProcNo        25;
        neighbProcNo    26;
    }
    procBoundary25to30
    {
        type            processor;
        inGroups        List<word> 1(processor);
        nFaces          1;
        startFace       90;
        matchTolerance  0.0001;
        transform       unknown;
        myProcNo        25;
        neighbProcNo    30;
    }
    procBoundary25to31
    {
        type            processor;
        inGroups        List<word> 1(processor);
        nFaces          8;
        startFace       91;
        matchTolerance  0.0001;
        transform       unknown;
        myProcNo        25;
        neighbProcNo    31;
    }
)

// ************************************************************************* //
