/*--------------------------------*- C++ -*----------------------------------*\
  =========                 |
  \\      /  F ield         | OpenFOAM: The Open Source CFD Toolbox
   \\    /   O peration     | Website:  https://openfoam.org
    \\  /    A nd           | Version:  7
     \\/     M anipulation  |
\*---------------------------------------------------------------------------*/
FoamFile
{
    version     2.0;
    format      ascii;
    class       polyBoundaryMesh;
    location    "constant/polyMesh";
    object      boundary;
}
// * * * * * * * * * * * * * * * * * * * * * * * * * * * * * * * * * * * * * //

10
(
    inlet
    {
        type            patch;
        nFaces          0;
        startFace       4345;
    }
    outlet
    {
        type            patch;
        nFaces          0;
        startFace       4345;
    }
    bottom
    {
        type            slip;
        inGroups        List<word> 1(slip);
        nFaces          0;
        startFace       4345;
    }
    top
    {
        type            slip;
        inGroups        List<word> 1(slip);
        nFaces          66;
        startFace       4345;
    }
    obstacle
    {
        type            wall;
        inGroups        List<word> 1(wall);
        nFaces          0;
        startFace       4411;
    }
    defaultFaces
    {
        type            empty;
        inGroups        List<word> 1(empty);
        nFaces          4446;
        startFace       4411;
    }
    procBoundary32to25
    {
        type            processor;
        inGroups        List<word> 1(processor);
        nFaces          3;
        startFace       8857;
        matchTolerance  0.0001;
        transform       unknown;
        myProcNo        32;
        neighbProcNo    25;
    }
    procBoundary32to26
    {
        type            processor;
        inGroups        List<word> 1(processor);
        nFaces          68;
        startFace       8860;
        matchTolerance  0.0001;
        transform       unknown;
        myProcNo        32;
        neighbProcNo    26;
    }
    procBoundary32to31
    {
        type            processor;
        inGroups        List<word> 1(processor);
        nFaces          32;
        startFace       8928;
        matchTolerance  0.0001;
        transform       unknown;
        myProcNo        32;
        neighbProcNo    31;
    }
    procBoundary32to33
    {
        type            processor;
        inGroups        List<word> 1(processor);
        nFaces          33;
        startFace       8960;
        matchTolerance  0.0001;
        transform       unknown;
        myProcNo        32;
        neighbProcNo    33;
    }
)

// ************************************************************************* //
