/*--------------------------------*- C++ -*----------------------------------*\
  =========                 |
  \\      /  F ield         | OpenFOAM: The Open Source CFD Toolbox
   \\    /   O peration     | Website:  https://openfoam.org
    \\  /    A nd           | Version:  7
     \\/     M anipulation  |
\*---------------------------------------------------------------------------*/
FoamFile
{
    version     2.0;
    format      ascii;
    class       polyBoundaryMesh;
    location    "constant/polyMesh";
    object      boundary;
}
// * * * * * * * * * * * * * * * * * * * * * * * * * * * * * * * * * * * * * //

12
(
    inlet
    {
        type            patch;
        nFaces          0;
        startFace       1041;
    }
    outlet
    {
        type            patch;
        nFaces          0;
        startFace       1041;
    }
    bottom
    {
        type            slip;
        inGroups        List<word> 1(slip);
        nFaces          0;
        startFace       1041;
    }
    top
    {
        type            slip;
        inGroups        List<word> 1(slip);
        nFaces          0;
        startFace       1041;
    }
    obstacle
    {
        type            wall;
        inGroups        List<word> 1(wall);
        nFaces          51;
        startFace       1041;
    }
    defaultFaces
    {
        type            empty;
        inGroups        List<word> 1(empty);
        nFaces          1110;
        startFace       1092;
    }
    procBoundary20to13
    {
        type            processor;
        inGroups        List<word> 1(processor);
        nFaces          1;
        startFace       2202;
        matchTolerance  0.0001;
        transform       unknown;
        myProcNo        20;
        neighbProcNo    13;
    }
    procBoundary20to14
    {
        type            processor;
        inGroups        List<word> 1(processor);
        nFaces          19;
        startFace       2203;
        matchTolerance  0.0001;
        transform       unknown;
        myProcNo        20;
        neighbProcNo    14;
    }
    procBoundary20to19
    {
        type            processor;
        inGroups        List<word> 1(processor);
        nFaces          16;
        startFace       2222;
        matchTolerance  0.0001;
        transform       unknown;
        myProcNo        20;
        neighbProcNo    19;
    }
    procBoundary20to25
    {
        type            processor;
        inGroups        List<word> 1(processor);
        nFaces          1;
        startFace       2238;
        matchTolerance  0.0001;
        transform       unknown;
        myProcNo        20;
        neighbProcNo    25;
    }
    procBoundary20to26
    {
        type            processor;
        inGroups        List<word> 1(processor);
        nFaces          34;
        startFace       2239;
        matchTolerance  0.0001;
        transform       unknown;
        myProcNo        20;
        neighbProcNo    26;
    }
    procBoundary20to27
    {
        type            processor;
        inGroups        List<word> 1(processor);
        nFaces          16;
        startFace       2273;
        matchTolerance  0.0001;
        transform       unknown;
        myProcNo        20;
        neighbProcNo    27;
    }
)

// ************************************************************************* //
