/*--------------------------------*- C++ -*----------------------------------*\
  =========                 |
  \\      /  F ield         | OpenFOAM: The Open Source CFD Toolbox
   \\    /   O peration     | Website:  https://openfoam.org
    \\  /    A nd           | Version:  7
     \\/     M anipulation  |
\*---------------------------------------------------------------------------*/
FoamFile
{
    version     2.0;
    format      ascii;
    class       polyBoundaryMesh;
    location    "constant/polyMesh";
    object      boundary;
}
// * * * * * * * * * * * * * * * * * * * * * * * * * * * * * * * * * * * * * //

12
(
    inlet
    {
        type            patch;
        nFaces          0;
        startFace       4342;
    }
    outlet
    {
        type            patch;
        nFaces          0;
        startFace       4342;
    }
    bottom
    {
        type            slip;
        inGroups        List<word> 1(slip);
        nFaces          0;
        startFace       4342;
    }
    top
    {
        type            slip;
        inGroups        List<word> 1(slip);
        nFaces          0;
        startFace       4342;
    }
    obstacle
    {
        type            wall;
        inGroups        List<word> 1(wall);
        nFaces          0;
        startFace       4342;
    }
    defaultFaces
    {
        type            empty;
        inGroups        List<word> 1(empty);
        nFaces          4444;
        startFace       4342;
    }
    procBoundary25to19
    {
        type            processor;
        inGroups        List<word> 1(processor);
        nFaces          70;
        startFace       8786;
        matchTolerance  0.0001;
        transform       unknown;
        myProcNo        25;
        neighbProcNo    19;
    }
    procBoundary25to24
    {
        type            processor;
        inGroups        List<word> 1(processor);
        nFaces          32;
        startFace       8856;
        matchTolerance  0.0001;
        transform       unknown;
        myProcNo        25;
        neighbProcNo    24;
    }
    procBoundary25to26
    {
        type            processor;
        inGroups        List<word> 1(processor);
        nFaces          31;
        startFace       8888;
        matchTolerance  0.0001;
        transform       unknown;
        myProcNo        25;
        neighbProcNo    26;
    }
    procBoundary25to30
    {
        type            processor;
        inGroups        List<word> 1(processor);
        nFaces          1;
        startFace       8919;
        matchTolerance  0.0001;
        transform       unknown;
        myProcNo        25;
        neighbProcNo    30;
    }
    procBoundary25to31
    {
        type            processor;
        inGroups        List<word> 1(processor);
        nFaces          69;
        startFace       8920;
        matchTolerance  0.0001;
        transform       unknown;
        myProcNo        25;
        neighbProcNo    31;
    }
    procBoundary25to32
    {
        type            processor;
        inGroups        List<word> 1(processor);
        nFaces          1;
        startFace       8989;
        matchTolerance  0.0001;
        transform       unknown;
        myProcNo        25;
        neighbProcNo    32;
    }
)

// ************************************************************************* //
