/*--------------------------------*- C++ -*----------------------------------*\
  =========                 |
  \\      /  F ield         | OpenFOAM: The Open Source CFD Toolbox
   \\    /   O peration     | Website:  https://openfoam.org
    \\  /    A nd           | Version:  7
     \\/     M anipulation  |
\*---------------------------------------------------------------------------*/
FoamFile
{
    version     2.0;
    format      ascii;
    class       polyBoundaryMesh;
    location    "constant/polyMesh";
    object      boundary;
}
// * * * * * * * * * * * * * * * * * * * * * * * * * * * * * * * * * * * * * //

11
(
    inlet
    {
        type            patch;
        nFaces          0;
        startFace       4343;
    }
    outlet
    {
        type            patch;
        nFaces          0;
        startFace       4343;
    }
    bottom
    {
        type            slip;
        inGroups        List<word> 1(slip);
        nFaces          0;
        startFace       4343;
    }
    top
    {
        type            slip;
        inGroups        List<word> 1(slip);
        nFaces          0;
        startFace       4343;
    }
    obstacle
    {
        type            wall;
        inGroups        List<word> 1(wall);
        nFaces          33;
        startFace       4343;
    }
    defaultFaces
    {
        type            empty;
        inGroups        List<word> 1(empty);
        nFaces          4444;
        startFace       4376;
    }
    procBoundary19to13
    {
        type            processor;
        inGroups        List<word> 1(processor);
        nFaces          35;
        startFace       8820;
        matchTolerance  0.0001;
        transform       unknown;
        myProcNo        19;
        neighbProcNo    13;
    }
    procBoundary19to18
    {
        type            processor;
        inGroups        List<word> 1(processor);
        nFaces          33;
        startFace       8855;
        matchTolerance  0.0001;
        transform       unknown;
        myProcNo        19;
        neighbProcNo    18;
    }
    procBoundary19to20
    {
        type            processor;
        inGroups        List<word> 1(processor);
        nFaces          33;
        startFace       8888;
        matchTolerance  0.0001;
        transform       unknown;
        myProcNo        19;
        neighbProcNo    20;
    }
    procBoundary19to24
    {
        type            processor;
        inGroups        List<word> 1(processor);
        nFaces          1;
        startFace       8921;
        matchTolerance  0.0001;
        transform       unknown;
        myProcNo        19;
        neighbProcNo    24;
    }
    procBoundary19to25
    {
        type            processor;
        inGroups        List<word> 1(processor);
        nFaces          67;
        startFace       8922;
        matchTolerance  0.0001;
        transform       unknown;
        myProcNo        19;
        neighbProcNo    25;
    }
)

// ************************************************************************* //
