/*--------------------------------*- C++ -*----------------------------------*\
  =========                 |
  \\      /  F ield         | OpenFOAM: The Open Source CFD Toolbox
   \\    /   O peration     | Website:  https://openfoam.org
    \\  /    A nd           | Version:  7
     \\/     M anipulation  |
\*---------------------------------------------------------------------------*/
FoamFile
{
    version     2.0;
    format      ascii;
    class       polyBoundaryMesh;
    location    "constant/polyMesh";
    object      boundary;
}
// * * * * * * * * * * * * * * * * * * * * * * * * * * * * * * * * * * * * * //

10
(
    inlet
    {
        type            patch;
        nFaces          0;
        startFace       32;
    }
    outlet
    {
        type            patch;
        nFaces          0;
        startFace       32;
    }
    bottom
    {
        type            slip;
        inGroups        List<word> 1(slip);
        nFaces          0;
        startFace       32;
    }
    top
    {
        type            slip;
        inGroups        List<word> 1(slip);
        nFaces          0;
        startFace       32;
    }
    obstacle
    {
        type            wall;
        inGroups        List<word> 1(wall);
        nFaces          9;
        startFace       32;
    }
    defaultFaces
    {
        type            empty;
        inGroups        List<word> 1(empty);
        nFaces          44;
        startFace       41;
    }
    procBoundary21to15
    {
        type            processor;
        inGroups        List<word> 1(processor);
        nFaces          2;
        startFace       85;
        matchTolerance  0.0001;
        transform       unknown;
        myProcNo        21;
        neighbProcNo    15;
    }
    procBoundary21to22
    {
        type            processor;
        inGroups        List<word> 1(processor);
        nFaces          7;
        startFace       87;
        matchTolerance  0.0001;
        transform       unknown;
        myProcNo        21;
        neighbProcNo    22;
    }
    procBoundary21to27
    {
        type            processor;
        inGroups        List<word> 1(processor);
        nFaces          4;
        startFace       94;
        matchTolerance  0.0001;
        transform       unknown;
        myProcNo        21;
        neighbProcNo    27;
    }
    procBoundary21to28
    {
        type            processor;
        inGroups        List<word> 1(processor);
        nFaces          2;
        startFace       98;
        matchTolerance  0.0001;
        transform       unknown;
        myProcNo        21;
        neighbProcNo    28;
    }
)

// ************************************************************************* //
