/*--------------------------------*- C++ -*----------------------------------*\
  =========                 |
  \\      /  F ield         | OpenFOAM: The Open Source CFD Toolbox
   \\    /   O peration     | Website:  https://openfoam.org
    \\  /    A nd           | Version:  7
     \\/     M anipulation  |
\*---------------------------------------------------------------------------*/
FoamFile
{
    version     2.0;
    format      ascii;
    class       polyBoundaryMesh;
    location    "constant/polyMesh";
    object      boundary;
}
// * * * * * * * * * * * * * * * * * * * * * * * * * * * * * * * * * * * * * //

12
(
    inlet
    {
        type            patch;
        nFaces          0;
        startFace       1060;
    }
    outlet
    {
        type            patch;
        nFaces          0;
        startFace       1060;
    }
    bottom
    {
        type            slip;
        inGroups        List<word> 1(slip);
        nFaces          0;
        startFace       1060;
    }
    top
    {
        type            slip;
        inGroups        List<word> 1(slip);
        nFaces          0;
        startFace       1060;
    }
    obstacle
    {
        type            wall;
        inGroups        List<word> 1(wall);
        nFaces          12;
        startFace       1060;
    }
    defaultFaces
    {
        type            empty;
        inGroups        List<word> 1(empty);
        nFaces          1110;
        startFace       1072;
    }
    procBoundary9to3
    {
        type            processor;
        inGroups        List<word> 1(processor);
        nFaces          19;
        startFace       2182;
        matchTolerance  0.0001;
        transform       unknown;
        myProcNo        9;
        neighbProcNo    3;
    }
    procBoundary9to4
    {
        type            processor;
        inGroups        List<word> 1(processor);
        nFaces          5;
        startFace       2201;
        matchTolerance  0.0001;
        transform       unknown;
        myProcNo        9;
        neighbProcNo    4;
    }
    procBoundary9to8
    {
        type            processor;
        inGroups        List<word> 1(processor);
        nFaces          2;
        startFace       2206;
        matchTolerance  0.0001;
        transform       unknown;
        myProcNo        9;
        neighbProcNo    8;
    }
    procBoundary9to10
    {
        type            processor;
        inGroups        List<word> 1(processor);
        nFaces          27;
        startFace       2208;
        matchTolerance  0.0001;
        transform       unknown;
        myProcNo        9;
        neighbProcNo    10;
    }
    procBoundary9to14
    {
        type            processor;
        inGroups        List<word> 1(processor);
        nFaces          17;
        startFace       2235;
        matchTolerance  0.0001;
        transform       unknown;
        myProcNo        9;
        neighbProcNo    14;
    }
    procBoundary9to15
    {
        type            processor;
        inGroups        List<word> 1(processor);
        nFaces          18;
        startFace       2252;
        matchTolerance  0.0001;
        transform       unknown;
        myProcNo        9;
        neighbProcNo    15;
    }
)

// ************************************************************************* //
