/*--------------------------------*- C++ -*----------------------------------*\
  =========                 |
  \\      /  F ield         | OpenFOAM: The Open Source CFD Toolbox
   \\    /   O peration     | Website:  https://openfoam.org
    \\  /    A nd           | Version:  7
     \\/     M anipulation  |
\*---------------------------------------------------------------------------*/
FoamFile
{
    version     2.0;
    format      ascii;
    class       polyBoundaryMesh;
    location    "constant/polyMesh";
    object      boundary;
}
// * * * * * * * * * * * * * * * * * * * * * * * * * * * * * * * * * * * * * //

12
(
    inlet
    {
        type            patch;
        nFaces          0;
        startFace       4339;
    }
    outlet
    {
        type            patch;
        nFaces          0;
        startFace       4339;
    }
    bottom
    {
        type            slip;
        inGroups        List<word> 1(slip);
        nFaces          0;
        startFace       4339;
    }
    top
    {
        type            slip;
        inGroups        List<word> 1(slip);
        nFaces          0;
        startFace       4339;
    }
    obstacle
    {
        type            wall;
        inGroups        List<word> 1(wall);
        nFaces          14;
        startFace       4339;
    }
    defaultFaces
    {
        type            empty;
        inGroups        List<word> 1(empty);
        nFaces          4444;
        startFace       4353;
    }
    procBoundary19to12
    {
        type            processor;
        inGroups        List<word> 1(processor);
        nFaces          1;
        startFace       8797;
        matchTolerance  0.0001;
        transform       unknown;
        myProcNo        19;
        neighbProcNo    12;
    }
    procBoundary19to13
    {
        type            processor;
        inGroups        List<word> 1(processor);
        nFaces          58;
        startFace       8798;
        matchTolerance  0.0001;
        transform       unknown;
        myProcNo        19;
        neighbProcNo    13;
    }
    procBoundary19to18
    {
        type            processor;
        inGroups        List<word> 1(processor);
        nFaces          33;
        startFace       8856;
        matchTolerance  0.0001;
        transform       unknown;
        myProcNo        19;
        neighbProcNo    18;
    }
    procBoundary19to20
    {
        type            processor;
        inGroups        List<word> 1(processor);
        nFaces          27;
        startFace       8889;
        matchTolerance  0.0001;
        transform       unknown;
        myProcNo        19;
        neighbProcNo    20;
    }
    procBoundary19to25
    {
        type            processor;
        inGroups        List<word> 1(processor);
        nFaces          70;
        startFace       8916;
        matchTolerance  0.0001;
        transform       unknown;
        myProcNo        19;
        neighbProcNo    25;
    }
    procBoundary19to26
    {
        type            processor;
        inGroups        List<word> 1(processor);
        nFaces          7;
        startFace       8986;
        matchTolerance  0.0001;
        transform       unknown;
        myProcNo        19;
        neighbProcNo    26;
    }
)

// ************************************************************************* //
