/*--------------------------------*- C++ -*----------------------------------*\
  =========                 |
  \\      /  F ield         | OpenFOAM: The Open Source CFD Toolbox
   \\    /   O peration     | Website:  https://openfoam.org
    \\  /    A nd           | Version:  7
     \\/     M anipulation  |
\*---------------------------------------------------------------------------*/
FoamFile
{
    version     2.0;
    format      ascii;
    class       polyBoundaryMesh;
    location    "constant/polyMesh";
    object      boundary;
}
// * * * * * * * * * * * * * * * * * * * * * * * * * * * * * * * * * * * * * //

10
(
    inlet
    {
        type            patch;
        nFaces          0;
        startFace       10;
    }
    outlet
    {
        type            patch;
        nFaces          0;
        startFace       10;
    }
    bottom
    {
        type            slip;
        inGroups        List<word> 1(slip);
        nFaces          0;
        startFace       10;
    }
    top
    {
        type            slip;
        inGroups        List<word> 1(slip);
        nFaces          2;
        startFace       10;
    }
    obstacle
    {
        type            wall;
        inGroups        List<word> 1(wall);
        nFaces          0;
        startFace       12;
    }
    defaultFaces
    {
        type            empty;
        inGroups        List<word> 1(empty);
        nFaces          16;
        startFace       12;
    }
    procBoundary33to26
    {
        type            processor;
        inGroups        List<word> 1(processor);
        nFaces          1;
        startFace       28;
        matchTolerance  0.0001;
        transform       unknown;
        myProcNo        33;
        neighbProcNo    26;
    }
    procBoundary33to27
    {
        type            processor;
        inGroups        List<word> 1(processor);
        nFaces          2;
        startFace       29;
        matchTolerance  0.0001;
        transform       unknown;
        myProcNo        33;
        neighbProcNo    27;
    }
    procBoundary33to32
    {
        type            processor;
        inGroups        List<word> 1(processor);
        nFaces          3;
        startFace       31;
        matchTolerance  0.0001;
        transform       unknown;
        myProcNo        33;
        neighbProcNo    32;
    }
    procBoundary33to34
    {
        type            processor;
        inGroups        List<word> 1(processor);
        nFaces          4;
        startFace       34;
        matchTolerance  0.0001;
        transform       unknown;
        myProcNo        33;
        neighbProcNo    34;
    }
)

// ************************************************************************* //
