/*--------------------------------*- C++ -*----------------------------------*\
  =========                 |
  \\      /  F ield         | OpenFOAM: The Open Source CFD Toolbox
   \\    /   O peration     | Website:  https://openfoam.org
    \\  /    A nd           | Version:  7
     \\/     M anipulation  |
\*---------------------------------------------------------------------------*/
FoamFile
{
    version     2.0;
    format      ascii;
    class       polyBoundaryMesh;
    location    "constant/polyMesh";
    object      boundary;
}
// * * * * * * * * * * * * * * * * * * * * * * * * * * * * * * * * * * * * * //

12
(
    inlet
    {
        type            patch;
        nFaces          0;
        startFace       249;
    }
    outlet
    {
        type            patch;
        nFaces          0;
        startFace       249;
    }
    bottom
    {
        type            slip;
        inGroups        List<word> 1(slip);
        nFaces          0;
        startFace       249;
    }
    top
    {
        type            slip;
        inGroups        List<word> 1(slip);
        nFaces          0;
        startFace       249;
    }
    obstacle
    {
        type            wall;
        inGroups        List<word> 1(wall);
        nFaces          0;
        startFace       249;
    }
    defaultFaces
    {
        type            empty;
        inGroups        List<word> 1(empty);
        nFaces          276;
        startFace       249;
    }
    procBoundary26to20
    {
        type            processor;
        inGroups        List<word> 1(processor);
        nFaces          18;
        startFace       525;
        matchTolerance  0.0001;
        transform       unknown;
        myProcNo        26;
        neighbProcNo    20;
    }
    procBoundary26to25
    {
        type            processor;
        inGroups        List<word> 1(processor);
        nFaces          9;
        startFace       543;
        matchTolerance  0.0001;
        transform       unknown;
        myProcNo        26;
        neighbProcNo    25;
    }
    procBoundary26to27
    {
        type            processor;
        inGroups        List<word> 1(processor);
        nFaces          3;
        startFace       552;
        matchTolerance  0.0001;
        transform       unknown;
        myProcNo        26;
        neighbProcNo    27;
    }
    procBoundary26to31
    {
        type            processor;
        inGroups        List<word> 1(processor);
        nFaces          1;
        startFace       555;
        matchTolerance  0.0001;
        transform       unknown;
        myProcNo        26;
        neighbProcNo    31;
    }
    procBoundary26to32
    {
        type            processor;
        inGroups        List<word> 1(processor);
        nFaces          17;
        startFace       556;
        matchTolerance  0.0001;
        transform       unknown;
        myProcNo        26;
        neighbProcNo    32;
    }
    procBoundary26to33
    {
        type            processor;
        inGroups        List<word> 1(processor);
        nFaces          6;
        startFace       573;
        matchTolerance  0.0001;
        transform       unknown;
        myProcNo        26;
        neighbProcNo    33;
    }
)

// ************************************************************************* //
