/*--------------------------------*- C++ -*----------------------------------*\
  =========                 |
  \\      /  F ield         | OpenFOAM: The Open Source CFD Toolbox
   \\    /   O peration     | Website:  https://openfoam.org
    \\  /    A nd           | Version:  7
     \\/     M anipulation  |
\*---------------------------------------------------------------------------*/
FoamFile
{
    version     2.0;
    format      ascii;
    class       polyBoundaryMesh;
    location    "constant/polyMesh";
    object      boundary;
}
// * * * * * * * * * * * * * * * * * * * * * * * * * * * * * * * * * * * * * //

9
(
    inlet
    {
        type            patch;
        nFaces          0;
        startFace       34;
    }
    outlet
    {
        type            patch;
        nFaces          6;
        startFace       34;
    }
    bottom
    {
        type            slip;
        inGroups        List<word> 1(slip);
        nFaces          0;
        startFace       40;
    }
    top
    {
        type            slip;
        inGroups        List<word> 1(slip);
        nFaces          0;
        startFace       40;
    }
    obstacle
    {
        type            wall;
        inGroups        List<word> 1(wall);
        nFaces          0;
        startFace       40;
    }
    defaultFaces
    {
        type            empty;
        inGroups        List<word> 1(empty);
        nFaces          44;
        startFace       40;
    }
    procBoundary23to17
    {
        type            processor;
        inGroups        List<word> 1(processor);
        nFaces          5;
        startFace       84;
        matchTolerance  0.0001;
        transform       unknown;
        myProcNo        23;
        neighbProcNo    17;
    }
    procBoundary23to22
    {
        type            processor;
        inGroups        List<word> 1(processor);
        nFaces          5;
        startFace       89;
        matchTolerance  0.0001;
        transform       unknown;
        myProcNo        23;
        neighbProcNo    22;
    }
    procBoundary23to29
    {
        type            processor;
        inGroups        List<word> 1(processor);
        nFaces          4;
        startFace       94;
        matchTolerance  0.0001;
        transform       unknown;
        myProcNo        23;
        neighbProcNo    29;
    }
)

// ************************************************************************* //
