/*--------------------------------*- C++ -*----------------------------------*\
  =========                 |
  \\      /  F ield         | OpenFOAM: The Open Source CFD Toolbox
   \\    /   O peration     | Website:  https://openfoam.org
    \\  /    A nd           | Version:  7
     \\/     M anipulation  |
\*---------------------------------------------------------------------------*/
FoamFile
{
    version     2.0;
    format      ascii;
    class       polyBoundaryMesh;
    location    "constant/polyMesh";
    object      boundary;
}
// * * * * * * * * * * * * * * * * * * * * * * * * * * * * * * * * * * * * * //

12
(
    inlet
    {
        type            patch;
        nFaces          0;
        startFace       4338;
    }
    outlet
    {
        type            patch;
        nFaces          0;
        startFace       4338;
    }
    bottom
    {
        type            slip;
        inGroups        List<word> 1(slip);
        nFaces          0;
        startFace       4338;
    }
    top
    {
        type            slip;
        inGroups        List<word> 1(slip);
        nFaces          0;
        startFace       4338;
    }
    obstacle
    {
        type            wall;
        inGroups        List<word> 1(wall);
        nFaces          0;
        startFace       4338;
    }
    defaultFaces
    {
        type            empty;
        inGroups        List<word> 1(empty);
        nFaces          4444;
        startFace       4338;
    }
    procBoundary26to19
    {
        type            processor;
        inGroups        List<word> 1(processor);
        nFaces          8;
        startFace       8782;
        matchTolerance  0.0001;
        transform       unknown;
        myProcNo        26;
        neighbProcNo    19;
    }
    procBoundary26to20
    {
        type            processor;
        inGroups        List<word> 1(processor);
        nFaces          74;
        startFace       8790;
        matchTolerance  0.0001;
        transform       unknown;
        myProcNo        26;
        neighbProcNo    20;
    }
    procBoundary26to25
    {
        type            processor;
        inGroups        List<word> 1(processor);
        nFaces          29;
        startFace       8864;
        matchTolerance  0.0001;
        transform       unknown;
        myProcNo        26;
        neighbProcNo    25;
    }
    procBoundary26to27
    {
        type            processor;
        inGroups        List<word> 1(processor);
        nFaces          4;
        startFace       8893;
        matchTolerance  0.0001;
        transform       unknown;
        myProcNo        26;
        neighbProcNo    27;
    }
    procBoundary26to32
    {
        type            processor;
        inGroups        List<word> 1(processor);
        nFaces          69;
        startFace       8897;
        matchTolerance  0.0001;
        transform       unknown;
        myProcNo        26;
        neighbProcNo    32;
    }
    procBoundary26to33
    {
        type            processor;
        inGroups        List<word> 1(processor);
        nFaces          28;
        startFace       8966;
        matchTolerance  0.0001;
        transform       unknown;
        myProcNo        26;
        neighbProcNo    33;
    }
)

// ************************************************************************* //
