/*--------------------------------*- C++ -*----------------------------------*\
  =========                 |
  \\      /  F ield         | OpenFOAM: The Open Source CFD Toolbox
   \\    /   O peration     | Website:  https://openfoam.org
    \\  /    A nd           | Version:  7
     \\/     M anipulation  |
\*---------------------------------------------------------------------------*/
FoamFile
{
    version     2.0;
    format      ascii;
    class       polyBoundaryMesh;
    location    "constant/polyMesh";
    object      boundary;
}
// * * * * * * * * * * * * * * * * * * * * * * * * * * * * * * * * * * * * * //

11
(
    inlet
    {
        type            patch;
        nFaces          0;
        startFace       1057;
    }
    outlet
    {
        type            patch;
        nFaces          0;
        startFace       1057;
    }
    bottom
    {
        type            slip;
        inGroups        List<word> 1(slip);
        nFaces          0;
        startFace       1057;
    }
    top
    {
        type            slip;
        inGroups        List<word> 1(slip);
        nFaces          0;
        startFace       1057;
    }
    obstacle
    {
        type            wall;
        inGroups        List<word> 1(wall);
        nFaces          0;
        startFace       1057;
    }
    defaultFaces
    {
        type            empty;
        inGroups        List<word> 1(empty);
        nFaces          1110;
        startFace       1057;
    }
    procBoundary22to16
    {
        type            processor;
        inGroups        List<word> 1(processor);
        nFaces          20;
        startFace       2167;
        matchTolerance  0.0001;
        transform       unknown;
        myProcNo        22;
        neighbProcNo    16;
    }
    procBoundary22to17
    {
        type            processor;
        inGroups        List<word> 1(processor);
        nFaces          1;
        startFace       2187;
        matchTolerance  0.0001;
        transform       unknown;
        myProcNo        22;
        neighbProcNo    17;
    }
    procBoundary22to21
    {
        type            processor;
        inGroups        List<word> 1(processor);
        nFaces          35;
        startFace       2188;
        matchTolerance  0.0001;
        transform       unknown;
        myProcNo        22;
        neighbProcNo    21;
    }
    procBoundary22to23
    {
        type            processor;
        inGroups        List<word> 1(processor);
        nFaces          32;
        startFace       2223;
        matchTolerance  0.0001;
        transform       unknown;
        myProcNo        22;
        neighbProcNo    23;
    }
    procBoundary22to28
    {
        type            processor;
        inGroups        List<word> 1(processor);
        nFaces          18;
        startFace       2255;
        matchTolerance  0.0001;
        transform       unknown;
        myProcNo        22;
        neighbProcNo    28;
    }
)

// ************************************************************************* //
