/*--------------------------------*- C++ -*----------------------------------*\
  =========                 |
  \\      /  F ield         | OpenFOAM: The Open Source CFD Toolbox
   \\    /   O peration     | Website:  https://openfoam.org
    \\  /    A nd           | Version:  7
     \\/     M anipulation  |
\*---------------------------------------------------------------------------*/
FoamFile
{
    version     2.0;
    format      ascii;
    class       polyBoundaryMesh;
    location    "constant/polyMesh";
    object      boundary;
}
// * * * * * * * * * * * * * * * * * * * * * * * * * * * * * * * * * * * * * //

12
(
    inlet
    {
        type            patch;
        nFaces          0;
        startFace       4326;
    }
    outlet
    {
        type            patch;
        nFaces          0;
        startFace       4326;
    }
    bottom
    {
        type            slip;
        inGroups        List<word> 1(slip);
        nFaces          0;
        startFace       4326;
    }
    top
    {
        type            slip;
        inGroups        List<word> 1(slip);
        nFaces          0;
        startFace       4326;
    }
    obstacle
    {
        type            wall;
        inGroups        List<word> 1(wall);
        nFaces          47;
        startFace       4326;
    }
    defaultFaces
    {
        type            empty;
        inGroups        List<word> 1(empty);
        nFaces          4444;
        startFace       4373;
    }
    procBoundary13to6
    {
        type            processor;
        inGroups        List<word> 1(processor);
        nFaces          1;
        startFace       8817;
        matchTolerance  0.0001;
        transform       unknown;
        myProcNo        13;
        neighbProcNo    6;
    }
    procBoundary13to7
    {
        type            processor;
        inGroups        List<word> 1(processor);
        nFaces          72;
        startFace       8818;
        matchTolerance  0.0001;
        transform       unknown;
        myProcNo        13;
        neighbProcNo    7;
    }
    procBoundary13to12
    {
        type            processor;
        inGroups        List<word> 1(processor);
        nFaces          34;
        startFace       8890;
        matchTolerance  0.0001;
        transform       unknown;
        myProcNo        13;
        neighbProcNo    12;
    }
    procBoundary13to14
    {
        type            processor;
        inGroups        List<word> 1(processor);
        nFaces          28;
        startFace       8924;
        matchTolerance  0.0001;
        transform       unknown;
        myProcNo        13;
        neighbProcNo    14;
    }
    procBoundary13to19
    {
        type            processor;
        inGroups        List<word> 1(processor);
        nFaces          50;
        startFace       8952;
        matchTolerance  0.0001;
        transform       unknown;
        myProcNo        13;
        neighbProcNo    19;
    }
    procBoundary13to20
    {
        type            processor;
        inGroups        List<word> 1(processor);
        nFaces          4;
        startFace       9002;
        matchTolerance  0.0001;
        transform       unknown;
        myProcNo        13;
        neighbProcNo    20;
    }
)

// ************************************************************************* //
