/*--------------------------------*- C++ -*----------------------------------*\
  =========                 |
  \\      /  F ield         | OpenFOAM: The Open Source CFD Toolbox
   \\    /   O peration     | Website:  https://openfoam.org
    \\  /    A nd           | Version:  7
     \\/     M anipulation  |
\*---------------------------------------------------------------------------*/
FoamFile
{
    version     2.0;
    format      ascii;
    class       polyBoundaryMesh;
    location    "constant/polyMesh";
    object      boundary;
}
// * * * * * * * * * * * * * * * * * * * * * * * * * * * * * * * * * * * * * //

10
(
    inlet
    {
        type            patch;
        nFaces          33;
        startFace       4343;
    }
    outlet
    {
        type            patch;
        nFaces          0;
        startFace       4376;
    }
    bottom
    {
        type            slip;
        inGroups        List<word> 1(slip);
        nFaces          0;
        startFace       4376;
    }
    top
    {
        type            slip;
        inGroups        List<word> 1(slip);
        nFaces          0;
        startFace       4376;
    }
    obstacle
    {
        type            wall;
        inGroups        List<word> 1(wall);
        nFaces          0;
        startFace       4376;
    }
    defaultFaces
    {
        type            empty;
        inGroups        List<word> 1(empty);
        nFaces          4444;
        startFace       4376;
    }
    procBoundary12to6
    {
        type            processor;
        inGroups        List<word> 1(processor);
        nFaces          67;
        startFace       8820;
        matchTolerance  0.0001;
        transform       unknown;
        myProcNo        12;
        neighbProcNo    6;
    }
    procBoundary12to13
    {
        type            processor;
        inGroups        List<word> 1(processor);
        nFaces          33;
        startFace       8887;
        matchTolerance  0.0001;
        transform       unknown;
        myProcNo        12;
        neighbProcNo    13;
    }
    procBoundary12to18
    {
        type            processor;
        inGroups        List<word> 1(processor);
        nFaces          68;
        startFace       8920;
        matchTolerance  0.0001;
        transform       unknown;
        myProcNo        12;
        neighbProcNo    18;
    }
    procBoundary12to19
    {
        type            processor;
        inGroups        List<word> 1(processor);
        nFaces          1;
        startFace       8988;
        matchTolerance  0.0001;
        transform       unknown;
        myProcNo        12;
        neighbProcNo    19;
    }
)

// ************************************************************************* //
