/*--------------------------------*- C++ -*----------------------------------*\
  =========                 |
  \\      /  F ield         | OpenFOAM: The Open Source CFD Toolbox
   \\    /   O peration     | Website:  https://openfoam.org
    \\  /    A nd           | Version:  7
     \\/     M anipulation  |
\*---------------------------------------------------------------------------*/
FoamFile
{
    version     2.0;
    format      ascii;
    class       polyBoundaryMesh;
    location    "constant/polyMesh";
    object      boundary;
}
// * * * * * * * * * * * * * * * * * * * * * * * * * * * * * * * * * * * * * //

11
(
    inlet
    {
        type            patch;
        nFaces          0;
        startFace       248;
    }
    outlet
    {
        type            patch;
        nFaces          0;
        startFace       248;
    }
    bottom
    {
        type            slip;
        inGroups        List<word> 1(slip);
        nFaces          0;
        startFace       248;
    }
    top
    {
        type            slip;
        inGroups        List<word> 1(slip);
        nFaces          0;
        startFace       248;
    }
    obstacle
    {
        type            wall;
        inGroups        List<word> 1(wall);
        nFaces          19;
        startFace       248;
    }
    defaultFaces
    {
        type            empty;
        inGroups        List<word> 1(empty);
        nFaces          276;
        startFace       267;
    }
    procBoundary21to15
    {
        type            processor;
        inGroups        List<word> 1(processor);
        nFaces          7;
        startFace       543;
        matchTolerance  0.0001;
        transform       unknown;
        myProcNo        21;
        neighbProcNo    15;
    }
    procBoundary21to16
    {
        type            processor;
        inGroups        List<word> 1(processor);
        nFaces          1;
        startFace       550;
        matchTolerance  0.0001;
        transform       unknown;
        myProcNo        21;
        neighbProcNo    16;
    }
    procBoundary21to22
    {
        type            processor;
        inGroups        List<word> 1(processor);
        nFaces          18;
        startFace       551;
        matchTolerance  0.0001;
        transform       unknown;
        myProcNo        21;
        neighbProcNo    22;
    }
    procBoundary21to27
    {
        type            processor;
        inGroups        List<word> 1(processor);
        nFaces          9;
        startFace       569;
        matchTolerance  0.0001;
        transform       unknown;
        myProcNo        21;
        neighbProcNo    27;
    }
    procBoundary21to28
    {
        type            processor;
        inGroups        List<word> 1(processor);
        nFaces          2;
        startFace       578;
        matchTolerance  0.0001;
        transform       unknown;
        myProcNo        21;
        neighbProcNo    28;
    }
)

// ************************************************************************* //
