/*--------------------------------*- C++ -*----------------------------------*\
  =========                 |
  \\      /  F ield         | OpenFOAM: The Open Source CFD Toolbox
   \\    /   O peration     | Website:  https://openfoam.org
    \\  /    A nd           | Version:  7
     \\/     M anipulation  |
\*---------------------------------------------------------------------------*/
FoamFile
{
    version     2.0;
    format      ascii;
    class       polyBoundaryMesh;
    location    "constant/polyMesh";
    object      boundary;
}
// * * * * * * * * * * * * * * * * * * * * * * * * * * * * * * * * * * * * * //

12
(
    inlet
    {
        type            patch;
        nFaces          0;
        startFace       1059;
    }
    outlet
    {
        type            patch;
        nFaces          0;
        startFace       1059;
    }
    bottom
    {
        type            slip;
        inGroups        List<word> 1(slip);
        nFaces          0;
        startFace       1059;
    }
    top
    {
        type            slip;
        inGroups        List<word> 1(slip);
        nFaces          0;
        startFace       1059;
    }
    obstacle
    {
        type            wall;
        inGroups        List<word> 1(wall);
        nFaces          0;
        startFace       1059;
    }
    defaultFaces
    {
        type            empty;
        inGroups        List<word> 1(empty);
        nFaces          1110;
        startFace       1059;
    }
    procBoundary8to1
    {
        type            processor;
        inGroups        List<word> 1(processor);
        nFaces          1;
        startFace       2169;
        matchTolerance  0.0001;
        transform       unknown;
        myProcNo        8;
        neighbProcNo    1;
    }
    procBoundary8to2
    {
        type            processor;
        inGroups        List<word> 1(processor);
        nFaces          35;
        startFace       2170;
        matchTolerance  0.0001;
        transform       unknown;
        myProcNo        8;
        neighbProcNo    2;
    }
    procBoundary8to3
    {
        type            processor;
        inGroups        List<word> 1(processor);
        nFaces          14;
        startFace       2205;
        matchTolerance  0.0001;
        transform       unknown;
        myProcNo        8;
        neighbProcNo    3;
    }
    procBoundary8to7
    {
        type            processor;
        inGroups        List<word> 1(processor);
        nFaces          15;
        startFace       2219;
        matchTolerance  0.0001;
        transform       unknown;
        myProcNo        8;
        neighbProcNo    7;
    }
    procBoundary8to9
    {
        type            processor;
        inGroups        List<word> 1(processor);
        nFaces          2;
        startFace       2234;
        matchTolerance  0.0001;
        transform       unknown;
        myProcNo        8;
        neighbProcNo    9;
    }
    procBoundary8to14
    {
        type            processor;
        inGroups        List<word> 1(processor);
        nFaces          35;
        startFace       2236;
        matchTolerance  0.0001;
        transform       unknown;
        myProcNo        8;
        neighbProcNo    14;
    }
)

// ************************************************************************* //
