/*--------------------------------*- C++ -*----------------------------------*\
  =========                 |
  \\      /  F ield         | OpenFOAM: The Open Source CFD Toolbox
   \\    /   O peration     | Website:  https://openfoam.org
    \\  /    A nd           | Version:  7
     \\/     M anipulation  |
\*---------------------------------------------------------------------------*/
FoamFile
{
    version     2.0;
    format      ascii;
    class       polyBoundaryMesh;
    location    "constant/polyMesh";
    object      boundary;
}
// * * * * * * * * * * * * * * * * * * * * * * * * * * * * * * * * * * * * * //

10
(
    inlet
    {
        type            patch;
        nFaces          0;
        startFace       32;
    }
    outlet
    {
        type            patch;
        nFaces          0;
        startFace       32;
    }
    bottom
    {
        type            slip;
        inGroups        List<word> 1(slip);
        nFaces          0;
        startFace       32;
    }
    top
    {
        type            slip;
        inGroups        List<word> 1(slip);
        nFaces          0;
        startFace       32;
    }
    obstacle
    {
        type            wall;
        inGroups        List<word> 1(wall);
        nFaces          8;
        startFace       32;
    }
    defaultFaces
    {
        type            empty;
        inGroups        List<word> 1(empty);
        nFaces          44;
        startFace       40;
    }
    procBoundary15to9
    {
        type            processor;
        inGroups        List<word> 1(processor);
        nFaces          4;
        startFace       84;
        matchTolerance  0.0001;
        transform       unknown;
        myProcNo        15;
        neighbProcNo    9;
    }
    procBoundary15to10
    {
        type            processor;
        inGroups        List<word> 1(processor);
        nFaces          3;
        startFace       88;
        matchTolerance  0.0001;
        transform       unknown;
        myProcNo        15;
        neighbProcNo    10;
    }
    procBoundary15to16
    {
        type            processor;
        inGroups        List<word> 1(processor);
        nFaces          7;
        startFace       91;
        matchTolerance  0.0001;
        transform       unknown;
        myProcNo        15;
        neighbProcNo    16;
    }
    procBoundary15to21
    {
        type            processor;
        inGroups        List<word> 1(processor);
        nFaces          2;
        startFace       98;
        matchTolerance  0.0001;
        transform       unknown;
        myProcNo        15;
        neighbProcNo    21;
    }
)

// ************************************************************************* //
