/*--------------------------------*- C++ -*----------------------------------*\
  =========                 |
  \\      /  F ield         | OpenFOAM: The Open Source CFD Toolbox
   \\    /   O peration     | Website:  https://openfoam.org
    \\  /    A nd           | Version:  7
     \\/     M anipulation  |
\*---------------------------------------------------------------------------*/
FoamFile
{
    version     2.0;
    format      ascii;
    class       polyBoundaryMesh;
    location    "constant/polyMesh";
    object      boundary;
}
// * * * * * * * * * * * * * * * * * * * * * * * * * * * * * * * * * * * * * //

10
(
    inlet
    {
        type            patch;
        nFaces          0;
        startFace       4343;
    }
    outlet
    {
        type            patch;
        nFaces          61;
        startFace       4343;
    }
    bottom
    {
        type            slip;
        inGroups        List<word> 1(slip);
        nFaces          0;
        startFace       4404;
    }
    top
    {
        type            slip;
        inGroups        List<word> 1(slip);
        nFaces          0;
        startFace       4404;
    }
    obstacle
    {
        type            wall;
        inGroups        List<word> 1(wall);
        nFaces          0;
        startFace       4404;
    }
    defaultFaces
    {
        type            empty;
        inGroups        List<word> 1(empty);
        nFaces          4444;
        startFace       4404;
    }
    procBoundary23to17
    {
        type            processor;
        inGroups        List<word> 1(processor);
        nFaces          39;
        startFace       8848;
        matchTolerance  0.0001;
        transform       unknown;
        myProcNo        23;
        neighbProcNo    17;
    }
    procBoundary23to22
    {
        type            processor;
        inGroups        List<word> 1(processor);
        nFaces          63;
        startFace       8887;
        matchTolerance  0.0001;
        transform       unknown;
        myProcNo        23;
        neighbProcNo    22;
    }
    procBoundary23to28
    {
        type            processor;
        inGroups        List<word> 1(processor);
        nFaces          3;
        startFace       8950;
        matchTolerance  0.0001;
        transform       unknown;
        myProcNo        23;
        neighbProcNo    28;
    }
    procBoundary23to29
    {
        type            processor;
        inGroups        List<word> 1(processor);
        nFaces          36;
        startFace       8953;
        matchTolerance  0.0001;
        transform       unknown;
        myProcNo        23;
        neighbProcNo    29;
    }
)

// ************************************************************************* //
