/*--------------------------------*- C++ -*----------------------------------*\
  =========                 |
  \\      /  F ield         | OpenFOAM: The Open Source CFD Toolbox
   \\    /   O peration     | Website:  https://openfoam.org
    \\  /    A nd           | Version:  7
     \\/     M anipulation  |
\*---------------------------------------------------------------------------*/
FoamFile
{
    version     2.0;
    format      ascii;
    class       polyBoundaryMesh;
    location    "constant/polyMesh";
    object      boundary;
}
// * * * * * * * * * * * * * * * * * * * * * * * * * * * * * * * * * * * * * //

10
(
    inlet
    {
        type            patch;
        nFaces          0;
        startFace       33;
    }
    outlet
    {
        type            patch;
        nFaces          7;
        startFace       33;
    }
    bottom
    {
        type            slip;
        inGroups        List<word> 1(slip);
        nFaces          0;
        startFace       40;
    }
    top
    {
        type            slip;
        inGroups        List<word> 1(slip);
        nFaces          0;
        startFace       40;
    }
    obstacle
    {
        type            wall;
        inGroups        List<word> 1(wall);
        nFaces          0;
        startFace       40;
    }
    defaultFaces
    {
        type            empty;
        inGroups        List<word> 1(empty);
        nFaces          44;
        startFace       40;
    }
    procBoundary11to5
    {
        type            processor;
        inGroups        List<word> 1(processor);
        nFaces          4;
        startFace       84;
        matchTolerance  0.0001;
        transform       unknown;
        myProcNo        11;
        neighbProcNo    5;
    }
    procBoundary11to10
    {
        type            processor;
        inGroups        List<word> 1(processor);
        nFaces          6;
        startFace       88;
        matchTolerance  0.0001;
        transform       unknown;
        myProcNo        11;
        neighbProcNo    10;
    }
    procBoundary11to16
    {
        type            processor;
        inGroups        List<word> 1(processor);
        nFaces          1;
        startFace       94;
        matchTolerance  0.0001;
        transform       unknown;
        myProcNo        11;
        neighbProcNo    16;
    }
    procBoundary11to17
    {
        type            processor;
        inGroups        List<word> 1(processor);
        nFaces          4;
        startFace       95;
        matchTolerance  0.0001;
        transform       unknown;
        myProcNo        11;
        neighbProcNo    17;
    }
)

// ************************************************************************* //
