/*--------------------------------*- C++ -*----------------------------------*\
  =========                 |
  \\      /  F ield         | OpenFOAM: The Open Source CFD Toolbox
   \\    /   O peration     | Website:  https://openfoam.org
    \\  /    A nd           | Version:  7
     \\/     M anipulation  |
\*---------------------------------------------------------------------------*/
FoamFile
{
    version     2.0;
    format      ascii;
    class       polyBoundaryMesh;
    location    "constant/polyMesh";
    object      boundary;
}
// * * * * * * * * * * * * * * * * * * * * * * * * * * * * * * * * * * * * * //

11
(
    inlet
    {
        type            patch;
        nFaces          0;
        startFace       4319;
    }
    outlet
    {
        type            patch;
        nFaces          0;
        startFace       4319;
    }
    bottom
    {
        type            slip;
        inGroups        List<word> 1(slip);
        nFaces          0;
        startFace       4319;
    }
    top
    {
        type            slip;
        inGroups        List<word> 1(slip);
        nFaces          0;
        startFace       4319;
    }
    obstacle
    {
        type            wall;
        inGroups        List<word> 1(wall);
        nFaces          71;
        startFace       4319;
    }
    defaultFaces
    {
        type            empty;
        inGroups        List<word> 1(empty);
        nFaces          4444;
        startFace       4390;
    }
    procBoundary20to13
    {
        type            processor;
        inGroups        List<word> 1(processor);
        nFaces          9;
        startFace       8834;
        matchTolerance  0.0001;
        transform       unknown;
        myProcNo        20;
        neighbProcNo    13;
    }
    procBoundary20to14
    {
        type            processor;
        inGroups        List<word> 1(processor);
        nFaces          37;
        startFace       8843;
        matchTolerance  0.0001;
        transform       unknown;
        myProcNo        20;
        neighbProcNo    14;
    }
    procBoundary20to19
    {
        type            processor;
        inGroups        List<word> 1(processor);
        nFaces          25;
        startFace       8880;
        matchTolerance  0.0001;
        transform       unknown;
        myProcNo        20;
        neighbProcNo    19;
    }
    procBoundary20to26
    {
        type            processor;
        inGroups        List<word> 1(processor);
        nFaces          74;
        startFace       8905;
        matchTolerance  0.0001;
        transform       unknown;
        myProcNo        20;
        neighbProcNo    26;
    }
    procBoundary20to27
    {
        type            processor;
        inGroups        List<word> 1(processor);
        nFaces          34;
        startFace       8979;
        matchTolerance  0.0001;
        transform       unknown;
        myProcNo        20;
        neighbProcNo    27;
    }
)

// ************************************************************************* //
