/*--------------------------------*- C++ -*----------------------------------*\
  =========                 |
  \\      /  F ield         | OpenFOAM: The Open Source CFD Toolbox
   \\    /   O peration     | Website:  https://openfoam.org
    \\  /    A nd           | Version:  7
     \\/     M anipulation  |
\*---------------------------------------------------------------------------*/
FoamFile
{
    version     2.0;
    format      ascii;
    class       polyBoundaryMesh;
    location    "constant/polyMesh";
    object      boundary;
}
// * * * * * * * * * * * * * * * * * * * * * * * * * * * * * * * * * * * * * //

9
(
    inlet
    {
        type            patch;
        nFaces          8;
        startFace       260;
    }
    outlet
    {
        type            patch;
        nFaces          0;
        startFace       268;
    }
    bottom
    {
        type            slip;
        inGroups        List<word> 1(slip);
        nFaces          0;
        startFace       268;
    }
    top
    {
        type            slip;
        inGroups        List<word> 1(slip);
        nFaces          17;
        startFace       268;
    }
    obstacle
    {
        type            wall;
        inGroups        List<word> 1(wall);
        nFaces          0;
        startFace       285;
    }
    defaultFaces
    {
        type            empty;
        inGroups        List<word> 1(empty);
        nFaces          286;
        startFace       285;
    }
    procBoundary30to24
    {
        type            processor;
        inGroups        List<word> 1(processor);
        nFaces          18;
        startFace       571;
        matchTolerance  0.0001;
        transform       unknown;
        myProcNo        30;
        neighbProcNo    24;
    }
    procBoundary30to25
    {
        type            processor;
        inGroups        List<word> 1(processor);
        nFaces          1;
        startFace       589;
        matchTolerance  0.0001;
        transform       unknown;
        myProcNo        30;
        neighbProcNo    25;
    }
    procBoundary30to31
    {
        type            processor;
        inGroups        List<word> 1(processor);
        nFaces          8;
        startFace       590;
        matchTolerance  0.0001;
        transform       unknown;
        myProcNo        30;
        neighbProcNo    31;
    }
)

// ************************************************************************* //
