/*--------------------------------*- C++ -*----------------------------------*\
  =========                 |
  \\      /  F ield         | OpenFOAM: The Open Source CFD Toolbox
   \\    /   O peration     | Website:  https://openfoam.org
    \\  /    A nd           | Version:  7
     \\/     M anipulation  |
\*---------------------------------------------------------------------------*/
FoamFile
{
    version     2.0;
    format      ascii;
    class       polyBoundaryMesh;
    location    "constant/polyMesh";
    object      boundary;
}
// * * * * * * * * * * * * * * * * * * * * * * * * * * * * * * * * * * * * * //

11
(
    inlet
    {
        type            patch;
        nFaces          0;
        startFace       33;
    }
    outlet
    {
        type            patch;
        nFaces          0;
        startFace       33;
    }
    bottom
    {
        type            slip;
        inGroups        List<word> 1(slip);
        nFaces          0;
        startFace       33;
    }
    top
    {
        type            slip;
        inGroups        List<word> 1(slip);
        nFaces          0;
        startFace       33;
    }
    obstacle
    {
        type            wall;
        inGroups        List<word> 1(wall);
        nFaces          0;
        startFace       33;
    }
    defaultFaces
    {
        type            empty;
        inGroups        List<word> 1(empty);
        nFaces          44;
        startFace       33;
    }
    procBoundary28to21
    {
        type            processor;
        inGroups        List<word> 1(processor);
        nFaces          2;
        startFace       77;
        matchTolerance  0.0001;
        transform       unknown;
        myProcNo        28;
        neighbProcNo    21;
    }
    procBoundary28to22
    {
        type            processor;
        inGroups        List<word> 1(processor);
        nFaces          3;
        startFace       79;
        matchTolerance  0.0001;
        transform       unknown;
        myProcNo        28;
        neighbProcNo    22;
    }
    procBoundary28to27
    {
        type            processor;
        inGroups        List<word> 1(processor);
        nFaces          6;
        startFace       82;
        matchTolerance  0.0001;
        transform       unknown;
        myProcNo        28;
        neighbProcNo    27;
    }
    procBoundary28to29
    {
        type            processor;
        inGroups        List<word> 1(processor);
        nFaces          7;
        startFace       88;
        matchTolerance  0.0001;
        transform       unknown;
        myProcNo        28;
        neighbProcNo    29;
    }
    procBoundary28to34
    {
        type            processor;
        inGroups        List<word> 1(processor);
        nFaces          4;
        startFace       95;
        matchTolerance  0.0001;
        transform       unknown;
        myProcNo        28;
        neighbProcNo    34;
    }
)

// ************************************************************************* //
