/*--------------------------------*- C++ -*----------------------------------*\
  =========                 |
  \\      /  F ield         | OpenFOAM: The Open Source CFD Toolbox
   \\    /   O peration     | Website:  https://openfoam.org
    \\  /    A nd           | Version:  7
     \\/     M anipulation  |
\*---------------------------------------------------------------------------*/
FoamFile
{
    version     2.0;
    format      ascii;
    class       polyBoundaryMesh;
    location    "constant/polyMesh";
    object      boundary;
}
// * * * * * * * * * * * * * * * * * * * * * * * * * * * * * * * * * * * * * //

12
(
    inlet
    {
        type            patch;
        nFaces          0;
        startFace       5;
    }
    outlet
    {
        type            patch;
        nFaces          0;
        startFace       5;
    }
    bottom
    {
        type            slip;
        inGroups        List<word> 1(slip);
        nFaces          0;
        startFace       5;
    }
    top
    {
        type            slip;
        inGroups        List<word> 1(slip);
        nFaces          0;
        startFace       5;
    }
    obstacle
    {
        type            wall;
        inGroups        List<word> 1(wall);
        nFaces          0;
        startFace       5;
    }
    defaultFaces
    {
        type            empty;
        inGroups        List<word> 1(empty);
        nFaces          10;
        startFace       5;
    }
    procBoundary9to3
    {
        type            processor;
        inGroups        List<word> 1(processor);
        nFaces          2;
        startFace       15;
        matchTolerance  0.0001;
        transform       unknown;
        myProcNo        9;
        neighbProcNo    3;
    }
    procBoundary9to4
    {
        type            processor;
        inGroups        List<word> 1(processor);
        nFaces          2;
        startFace       17;
        matchTolerance  0.0001;
        transform       unknown;
        myProcNo        9;
        neighbProcNo    4;
    }
    procBoundary9to8
    {
        type            processor;
        inGroups        List<word> 1(processor);
        nFaces          1;
        startFace       19;
        matchTolerance  0.0001;
        transform       unknown;
        myProcNo        9;
        neighbProcNo    8;
    }
    procBoundary9to14
    {
        type            processor;
        inGroups        List<word> 1(processor);
        nFaces          1;
        startFace       20;
        matchTolerance  0.0001;
        transform       unknown;
        myProcNo        9;
        neighbProcNo    14;
    }
    procBoundary9to15
    {
        type            processor;
        inGroups        List<word> 1(processor);
        nFaces          3;
        startFace       21;
        matchTolerance  0.0001;
        transform       unknown;
        myProcNo        9;
        neighbProcNo    15;
    }
    procBoundary9to20
    {
        type            processor;
        inGroups        List<word> 1(processor);
        nFaces          1;
        startFace       24;
        matchTolerance  0.0001;
        transform       unknown;
        myProcNo        9;
        neighbProcNo    20;
    }
)

// ************************************************************************* //
