/*--------------------------------*- C++ -*----------------------------------*\
  =========                 |
  \\      /  F ield         | OpenFOAM: The Open Source CFD Toolbox
   \\    /   O peration     | Website:  https://openfoam.org
    \\  /    A nd           | Version:  7
     \\/     M anipulation  |
\*---------------------------------------------------------------------------*/
FoamFile
{
    version     2.0;
    format      ascii;
    class       polyBoundaryMesh;
    location    "constant/polyMesh";
    object      boundary;
}
// * * * * * * * * * * * * * * * * * * * * * * * * * * * * * * * * * * * * * //

10
(
    inlet
    {
        type            patch;
        nFaces          0;
        startFace       4341;
    }
    outlet
    {
        type            patch;
        nFaces          68;
        startFace       4341;
    }
    bottom
    {
        type            slip;
        inGroups        List<word> 1(slip);
        nFaces          0;
        startFace       4409;
    }
    top
    {
        type            slip;
        inGroups        List<word> 1(slip);
        nFaces          0;
        startFace       4409;
    }
    obstacle
    {
        type            wall;
        inGroups        List<word> 1(wall);
        nFaces          0;
        startFace       4409;
    }
    defaultFaces
    {
        type            empty;
        inGroups        List<word> 1(empty);
        nFaces          4444;
        startFace       4409;
    }
    procBoundary29to23
    {
        type            processor;
        inGroups        List<word> 1(processor);
        nFaces          34;
        startFace       8853;
        matchTolerance  0.0001;
        transform       unknown;
        myProcNo        29;
        neighbProcNo    23;
    }
    procBoundary29to28
    {
        type            processor;
        inGroups        List<word> 1(processor);
        nFaces          70;
        startFace       8887;
        matchTolerance  0.0001;
        transform       unknown;
        myProcNo        29;
        neighbProcNo    28;
    }
    procBoundary29to34
    {
        type            processor;
        inGroups        List<word> 1(processor);
        nFaces          1;
        startFace       8957;
        matchTolerance  0.0001;
        transform       unknown;
        myProcNo        29;
        neighbProcNo    34;
    }
    procBoundary29to35
    {
        type            processor;
        inGroups        List<word> 1(processor);
        nFaces          33;
        startFace       8958;
        matchTolerance  0.0001;
        transform       unknown;
        myProcNo        29;
        neighbProcNo    35;
    }
)

// ************************************************************************* //
