/*--------------------------------*- C++ -*----------------------------------*\
  =========                 |
  \\      /  F ield         | OpenFOAM: The Open Source CFD Toolbox
   \\    /   O peration     | Website:  https://openfoam.org
    \\  /    A nd           | Version:  7
     \\/     M anipulation  |
\*---------------------------------------------------------------------------*/
FoamFile
{
    version     2.0;
    format      ascii;
    class       polyBoundaryMesh;
    location    "constant/polyMesh";
    object      boundary;
}
// * * * * * * * * * * * * * * * * * * * * * * * * * * * * * * * * * * * * * //

8
(
    inlet
    {
        type            patch;
        nFaces          0;
        startFace       254;
    }
    outlet
    {
        type            patch;
        nFaces          18;
        startFace       254;
    }
    bottom
    {
        type            slip;
        inGroups        List<word> 1(slip);
        nFaces          0;
        startFace       272;
    }
    top
    {
        type            slip;
        inGroups        List<word> 1(slip);
        nFaces          8;
        startFace       272;
    }
    obstacle
    {
        type            wall;
        inGroups        List<word> 1(wall);
        nFaces          0;
        startFace       280;
    }
    defaultFaces
    {
        type            empty;
        inGroups        List<word> 1(empty);
        nFaces          280;
        startFace       280;
    }
    procBoundary35to29
    {
        type            processor;
        inGroups        List<word> 1(processor);
        nFaces          9;
        startFace       560;
        matchTolerance  0.0001;
        transform       unknown;
        myProcNo        35;
        neighbProcNo    29;
    }
    procBoundary35to34
    {
        type            processor;
        inGroups        List<word> 1(processor);
        nFaces          17;
        startFace       569;
        matchTolerance  0.0001;
        transform       unknown;
        myProcNo        35;
        neighbProcNo    34;
    }
)

// ************************************************************************* //
